
This summary file was generated by TurbSim (from OpenFAST-v2.5.0-3490-g24c05a74) on 03-Dec-2024 at 21:50:57.


Runtime Options:

     40071  Random seed #1
    RANLUX  Type of random number generator
         F  Output binary HH turbulence parameters?
         F  Output formatted turbulence parameters?
         F  Output AeroDyn HH files?
         T  Output AeroDyn FF files?
         F  Output BLADED FF files?
         F  Output tower data?
         F  Output HAWC FF files?
         F  Output formatted FF files?
         T  Output coherent turbulence time step file?
 0 -  NONE  IEC turbulence models scaled to exact specified standard deviation


Turbine/Model Specifications:

        38  Vertical grid-point matrix dimension
        26  Horizontal grid-point matrix dimension
     0.050  Time step [seconds]
   600.000  Analysis time [seconds]
   600.000  Usable output time [seconds]
    42.600  Hub height [m]
    63.901  Grid height [m]
   118.825  Grid width [m]
     0.000  Vertical flow angle [degrees]
     0.000  Horizontal flow angle [degrees]


Meteorological Boundary Conditions:

    IECKAI  IEC Kaimal spectral model
         1  IEC standard: IEC 61400-1 Ed. 3: 2005
         A  IEC turbulence characteristic
       NTM  IEC Normal Turbulence Model
       N/A  IEC Extreme Turbulence Model (ETM) "c" parameter [m/s]
       PL   Wind profile type
    43.000  Reference height [m]
     5.000  Reference wind speed [m/s]
       N/A  Jet height [m]
     0.200  Power law exponent
     0.030  Surface roughness length [m]


Non-IEC Meteorological Boundary Conditions:

       N/A  Site latitude [degrees]
       N/A  Gradient Richardson number
       N/A  Friction or shear velocity [m/s]
       N/A  Mixing layer depth [m]
       N/A  Mean hub u'w' Reynolds stress
       N/A  Mean hub u'v' Reynolds stress
       N/A  Mean hub v'w' Reynolds stress


Spatial Coherence Models:

       IEC  u-component coherence model
      NONE  v-component coherence model
      NONE  w-component coherence model
(   12.000, 0.497E-03)  u-component coherence parameters
                   N/A  v-component coherence parameters
                   N/A  w-component coherence parameters
       N/A  Coherence exponent


You have requested that the following file(s) be generated:

   ./turbsimfiles/DLC1_1Vinf05.0.bts (AeroDyn/TurbSim full-field wind file)


Turbulence Simulation Scaling Parameter Summary:

   Turbulence model used                            =  IEC Kaimal
   Turbulence characteristic                        =  A
   IEC turbulence type                              =  Normal Turbulence Model
   IEC standard                                     =  IEC 61400-1 Ed. 3: 2005
   Mean wind speed at hub height                    =    4.991 m/s
   Expected value of turbulence intensity at 15 m/s =   16.000%
   Characteristic value of standard deviation       =    1.495 m/s
   Turbulence scale                                 =   29.820 m
   u-component integral scale                       =  241.544 m
   Coherency scale                                  =  241.544 m
   Characteristic value of hub turbulence intensity =   29.953%
   Gradient Richardson number                       =    0.000

   Wind profile type                                =  Power law
   Power law exponent                               =    0.200
   Mean shear across rotor disk                     =    0.028 (m/s)/m
   Assumed rotor diameter                           =   63.901 m
   Surface roughness length                         =    0.030 m

   Nyquist frequency of turbulent wind field        =   10.000 Hz

   Number of time steps in the FFT                  =    12000
   Number of time steps output                      =    12000
   Number of points simulated                       =      989


Mean Flow Angles:

   Vertical   =   0.0 degrees
   Horizontal =   0.0 degrees

Mean Wind Speed Profile:

   Height    Wind Speed   Horizontal Angle  Vertical Angle  U-comp (X)   V-comp (Y)   W-comp (Z)
     (m)        (m/s)         (degrees)       (degrees)       (m/s)        (m/s)        (m/s)   
   ------    ----------   ----------------  --------------  ----------   ----------   ----------
     74.6        5.58            0.00            0.00          5.58         0.00         0.00
     72.8        5.56            0.00            0.00          5.56         0.00         0.00
     71.1        5.53            0.00            0.00          5.53         0.00         0.00
     69.4        5.50            0.00            0.00          5.50         0.00         0.00
     67.6        5.47            0.00            0.00          5.47         0.00         0.00
     65.9        5.45            0.00            0.00          5.45         0.00         0.00
     64.2        5.42            0.00            0.00          5.42         0.00         0.00
     62.5        5.39            0.00            0.00          5.39         0.00         0.00
     60.7        5.36            0.00            0.00          5.36         0.00         0.00
     59.0        5.33            0.00            0.00          5.33         0.00         0.00
     57.3        5.30            0.00            0.00          5.30         0.00         0.00
     55.6        5.26            0.00            0.00          5.26         0.00         0.00
     53.8        5.23            0.00            0.00          5.23         0.00         0.00
     52.1        5.20            0.00            0.00          5.20         0.00         0.00
     50.4        5.16            0.00            0.00          5.16         0.00         0.00
     48.6        5.12            0.00            0.00          5.12         0.00         0.00
     46.9        5.09            0.00            0.00          5.09         0.00         0.00
     45.2        5.05            0.00            0.00          5.05         0.00         0.00
     43.5        5.01            0.00            0.00          5.01         0.00         0.00
     42.6        4.99            0.00            0.00          4.99         0.00         0.00
     41.7        4.97            0.00            0.00          4.97         0.00         0.00
     40.0        4.93            0.00            0.00          4.93         0.00         0.00
     38.3        4.89            0.00            0.00          4.89         0.00         0.00
     36.6        4.84            0.00            0.00          4.84         0.00         0.00
     34.8        4.79            0.00            0.00          4.79         0.00         0.00
     33.1        4.75            0.00            0.00          4.75         0.00         0.00
     31.4        4.69            0.00            0.00          4.69         0.00         0.00
     29.6        4.64            0.00            0.00          4.64         0.00         0.00
     27.9        4.59            0.00            0.00          4.59         0.00         0.00
     26.2        4.53            0.00            0.00          4.53         0.00         0.00
     24.5        4.47            0.00            0.00          4.47         0.00         0.00
     22.7        4.40            0.00            0.00          4.40         0.00         0.00
     21.0        4.33            0.00            0.00          4.33         0.00         0.00
     19.3        4.26            0.00            0.00          4.26         0.00         0.00
     17.6        4.18            0.00            0.00          4.18         0.00         0.00
     15.8        4.09            0.00            0.00          4.09         0.00         0.00
     14.1        4.00            0.00            0.00          4.00         0.00         0.00
     12.4        3.90            0.00            0.00          3.90         0.00         0.00
     10.7        3.78            0.00            0.00          3.78         0.00         0.00


Harvested Random Seeds after Generation of the Random Numbers:

    165410250 K 1
            0 K 2


Hub-Height Simulated Turbulence Statistical Summary:

   Type of Wind        Min (m/s)   Mean (m/s)    Max (m/s)  Sigma (m/s)       TI (%)
   ----------------    ---------   ----------    ---------  -----------       ------
   Longitudinal (u)         1.73         4.99        10.83        1.564       31.342
   Lateral (v)             -3.79         0.00         4.10        1.158       23.213
   Vertical (w)            -2.40         0.00         2.87        0.733       14.681
   U component              1.73         4.99        10.83        1.564       31.342
   V component             -3.79         0.00         4.10        1.158       23.213
   W component             -2.40         0.00         2.87        0.733       14.681
   Horizontal (U&V)         1.73         5.13        10.83        1.527       29.742
   Total                    1.74         5.19        10.84        1.512       29.120

                       Min Reynolds     Mean Reynolds    Max Reynolds    Correlation
   Product             Stress (m/s)^2   Stress (m/s)^2   Stress (m/s)^2  Coefficient
   ----------------    --------------   --------------   --------------  -----------
   u'w'                     -6.829            -0.008             7.019        -0.007
   u'v'                    -13.246            -0.040             7.736        -0.022
   v'w'                     -4.807            -0.049             4.917        -0.058


   Friction Velocity (Ustar)  =      0.092 m/s
   Maximum Instantaneous TKE  =     17.083 (m/s)^2
   Maximum Instantaneous CTKE =      6.626 (m/s)^2


Grid Point Variance Summary:

   Y-coord  -59.41  -54.66  -49.91  -45.15  -40.40  -35.65  -30.89  -26.14  -21.39  -16.64  -11.88   -7.13   -2.38    2.38    7.13   11.88   16.64   21.39   26.14   30.89   35.65   40.40   45.15   49.91   54.66   59.41

   Height   Standard deviation at grid points for the u component:
    74.55    1.332   1.422   1.465   1.425   1.417   1.449   1.325   1.297   1.379   1.356   1.324   1.331   1.232   1.421   1.319   1.346   1.350   1.312   1.370   1.416   1.446   1.441   1.395   1.300   1.405   1.307
    72.82    1.285   1.414   1.399   1.414   1.391   1.465   1.364   1.352   1.353   1.312   1.310   1.439   1.308   1.411   1.377   1.368   1.326   1.294   1.409   1.373   1.433   1.384   1.314   1.242   1.400   1.315
    71.10    1.360   1.437   1.416   1.475   1.412   1.387   1.402   1.362   1.458   1.325   1.391   1.422   1.401   1.493   1.460   1.358   1.367   1.307   1.330   1.275   1.398   1.316   1.260   1.354   1.357   1.480
    69.37    1.365   1.355   1.389   1.418   1.421   1.363   1.273   1.329   1.407   1.374   1.456   1.440   1.424   1.448   1.429   1.286   1.367   1.280   1.326   1.256   1.281   1.304   1.267   1.280   1.389   1.543
    67.64    1.305   1.368   1.319   1.468   1.355   1.309   1.269   1.285   1.364   1.380   1.447   1.382   1.541   1.508   1.464   1.315   1.333   1.264   1.266   1.244   1.288   1.305   1.231   1.283   1.416   1.536
    65.92    1.293   1.307   1.290   1.320   1.326   1.358   1.373   1.258   1.310   1.359   1.366   1.376   1.590   1.444   1.433   1.365   1.336   1.191   1.301   1.250   1.289   1.252   1.264   1.313   1.520   1.616
    64.19    1.261   1.276   1.235   1.155   1.318   1.343   1.288   1.259   1.266   1.347   1.444   1.429   1.517   1.506   1.446   1.391   1.342   1.200   1.314   1.264   1.219   1.185   1.253   1.337   1.469   1.570
    62.46    1.257   1.286   1.162   1.172   1.293   1.265   1.270   1.304   1.186   1.399   1.411   1.491   1.500   1.527   1.446   1.420   1.274   1.170   1.198   1.281   1.219   1.279   1.335   1.312   1.422   1.519
    60.73    1.195   1.278   1.216   1.161   1.212   1.264   1.234   1.218   1.248   1.364   1.285   1.429   1.452   1.504   1.400   1.423   1.272   1.190   1.168   1.236   1.183   1.228   1.387   1.362   1.347   1.467
    59.01    1.213   1.244   1.179   1.239   1.144   1.329   1.270   1.250   1.351   1.356   1.287   1.333   1.395   1.487   1.364   1.397   1.199   1.183   1.212   1.171   1.210   1.311   1.347   1.414   1.328   1.437
    57.28    1.174   1.212   1.182   1.205   1.155   1.296   1.199   1.283   1.369   1.326   1.199   1.280   1.401   1.446   1.348   1.277   1.304   1.184   1.221   1.173   1.197   1.328   1.424   1.396   1.402   1.401
    55.55    1.181   1.243   1.239   1.166   1.135   1.279   1.224   1.302   1.312   1.389   1.265   1.370   1.397   1.501   1.431   1.220   1.250   1.168   1.240   1.195   1.214   1.392   1.329   1.332   1.384   1.443
    53.83    1.134   1.153   1.190   1.151   1.159   1.152   1.205   1.332   1.384   1.436   1.213   1.339   1.456   1.578   1.411   1.223   1.237   1.203   1.171   1.153   1.266   1.326   1.362   1.336   1.409   1.372
    52.10    1.206   1.183   1.183   1.152   1.186   1.090   1.201   1.271   1.283   1.428   1.312   1.390   1.498   1.514   1.471   1.246   1.268   1.146   1.152   1.165   1.307   1.292   1.365   1.379   1.414   1.380
    50.37    1.126   1.183   1.084   1.105   1.093   1.114   1.096   1.282   1.248   1.376   1.290   1.350   1.482   1.505   1.472   1.283   1.257   1.107   1.217   1.277   1.293   1.358   1.398   1.506   1.412   1.389
    48.65    1.165   1.189   1.041   1.089   1.000   1.111   1.059   1.279   1.271   1.333   1.209   1.387   1.496   1.512   1.444   1.356   1.218   1.106   1.179   1.258   1.358   1.329   1.415   1.496   1.465   1.342
    46.92    1.159   1.120   1.101   0.974   0.955   1.079   1.135   1.321   1.267   1.300   1.290   1.375   1.440   1.468   1.458   1.328   1.184   1.165   1.160   1.284   1.308   1.278   1.399   1.504   1.505   1.277
    45.19    1.191   1.141   1.073   0.985   0.968   1.040   1.183   1.303   1.226   1.293   1.195   1.342   1.412   1.490   1.472   1.343   1.183   1.206   1.159   1.321   1.345   1.378   1.451   1.557   1.501   1.312
    43.46    1.168   1.143   1.075   1.022   0.998   1.097   1.239   1.363   1.240   1.268   1.294   1.351   1.517   1.501   1.469   1.351   1.176   1.201   1.238   1.319   1.298   1.391   1.535   1.574   1.475   1.275
    41.74    1.125   1.055   1.064   0.994   1.098   1.182   1.188   1.320   1.213   1.290   1.422   1.427   1.476   1.521   1.443   1.358   1.185   1.225   1.246   1.290   1.286   1.388   1.475   1.503   1.410   1.164
    40.01    1.089   1.029   1.033   0.987   1.100   1.240   1.257   1.314   1.257   1.299   1.393   1.458   1.519   1.526   1.466   1.325   1.199   1.193   1.281   1.323   1.292   1.412   1.516   1.496   1.456   1.146
    38.28    1.085   1.011   1.003   1.010   1.095   1.232   1.221   1.236   1.207   1.342   1.444   1.573   1.497   1.535   1.415   1.268   1.227   1.163   1.247   1.282   1.200   1.384   1.530   1.530   1.360   1.236
    36.56    1.105   1.088   1.065   1.041   1.101   1.152   1.227   1.241   1.308   1.398   1.444   1.549   1.472   1.471   1.440   1.277   1.261   1.226   1.324   1.327   1.222   1.417   1.551   1.556   1.388   1.207
    34.83    1.105   1.039   1.048   1.026   1.044   1.138   1.177   1.264   1.318   1.364   1.452   1.479   1.496   1.473   1.377   1.319   1.302   1.307   1.348   1.324   1.342   1.457   1.521   1.556   1.442   1.193
    33.10    1.049   1.036   1.011   0.963   0.979   1.164   1.205   1.215   1.349   1.310   1.378   1.387   1.557   1.570   1.398   1.420   1.314   1.362   1.337   1.302   1.360   1.383   1.561   1.568   1.464   1.278
    31.37    1.043   1.050   1.028   0.961   0.990   1.140   1.209   1.209   1.299   1.383   1.383   1.450   1.531   1.592   1.431   1.356   1.384   1.339   1.300   1.322   1.339   1.320   1.451   1.572   1.475   1.341
    29.65    1.084   1.042   1.029   0.972   1.032   1.122   1.192   1.205   1.204   1.288   1.368   1.432   1.485   1.544   1.433   1.327   1.395   1.368   1.366   1.271   1.254   1.241   1.434   1.436   1.421   1.262
    27.92    1.086   0.992   1.000   1.070   1.101   1.109   1.146   1.148   1.156   1.289   1.291   1.401   1.445   1.577   1.506   1.370   1.410   1.334   1.348   1.269   1.236   1.255   1.406   1.487   1.409   1.210
    26.19    1.113   0.999   1.018   1.058   1.171   1.118   1.101   1.197   1.197   1.257   1.221   1.387   1.424   1.486   1.520   1.344   1.334   1.268   1.282   1.231   1.312   1.267   1.407   1.443   1.313   1.246
    24.47    1.083   1.042   1.070   1.057   1.124   1.137   1.085   1.196   1.180   1.270   1.290   1.403   1.403   1.488   1.406   1.366   1.336   1.245   1.256   1.229   1.271   1.268   1.344   1.456   1.365   1.256
    22.74    1.087   1.072   1.165   1.185   1.226   1.236   1.169   1.179   1.236   1.243   1.348   1.356   1.325   1.467   1.396   1.319   1.234   1.176   1.247   1.269   1.233   1.331   1.379   1.408   1.350   1.237
    21.01    1.073   1.048   1.214   1.227   1.280   1.241   1.152   1.184   1.253   1.254   1.374   1.346   1.312   1.448   1.472   1.256   1.207   1.202   1.299   1.264   1.174   1.329   1.340   1.362   1.290   1.212
    19.29    1.093   1.062   1.204   1.258   1.326   1.267   1.194   1.105   1.207   1.231   1.346   1.418   1.417   1.350   1.393   1.230   1.201   1.234   1.300   1.301   1.284   1.415   1.396   1.280   1.264   1.169
    17.56    1.098   1.170   1.262   1.256   1.370   1.296   1.182   1.091   1.265   1.255   1.351   1.437   1.326   1.366   1.360   1.257   1.218   1.188   1.414   1.296   1.313   1.378   1.346   1.193   1.251   1.251
    15.83    1.211   1.255   1.346   1.311   1.365   1.293   1.222   1.130   1.275   1.271   1.314   1.428   1.358   1.341   1.365   1.291   1.238   1.263   1.324   1.380   1.352   1.292   1.378   1.242   1.159   1.240
    14.10    1.261   1.253   1.427   1.343   1.460   1.396   1.255   1.203   1.335   1.349   1.242   1.411   1.350   1.303   1.344   1.252   1.285   1.300   1.337   1.311   1.365   1.387   1.298   1.279   1.146   1.167
    12.38    1.298   1.309   1.389   1.420   1.465   1.392   1.237   1.252   1.342   1.293   1.288   1.365   1.457   1.327   1.300   1.303   1.300   1.298   1.378   1.379   1.364   1.316   1.256   1.319   1.113   1.176
    10.65    1.382   1.364   1.441   1.402   1.496   1.473   1.253   1.351   1.430   1.383   1.291   1.430   1.388   1.371   1.342   1.233   1.233   1.377   1.366   1.443   1.392   1.280   1.308   1.311   1.188   1.163

   Height   Standard deviation at grid points for the v component:
    74.55    1.158   1.158   1.158   1.158   1.158   1.158   1.158   1.158   1.158   1.158   1.158   1.158   1.158   1.158   1.158   1.158   1.158   1.158   1.158   1.158   1.158   1.158   1.158   1.158   1.158   1.158
    72.82    1.158   1.158   1.158   1.158   1.158   1.158   1.158   1.158   1.158   1.158   1.158   1.158   1.158   1.158   1.158   1.158   1.158   1.158   1.158   1.158   1.158   1.158   1.158   1.158   1.158   1.158
    71.10    1.158   1.158   1.158   1.158   1.158   1.158   1.158   1.158   1.158   1.158   1.158   1.158   1.158   1.158   1.158   1.158   1.158   1.158   1.158   1.158   1.158   1.158   1.158   1.158   1.158   1.158
    69.37    1.158   1.158   1.158   1.158   1.158   1.158   1.158   1.158   1.158   1.158   1.158   1.158   1.158   1.158   1.158   1.158   1.158   1.158   1.158   1.158   1.158   1.158   1.158   1.158   1.158   1.158
    67.64    1.158   1.158   1.158   1.158   1.158   1.158   1.158   1.158   1.158   1.158   1.158   1.158   1.158   1.158   1.158   1.158   1.158   1.158   1.158   1.158   1.158   1.158   1.158   1.158   1.158   1.158
    65.92    1.158   1.158   1.158   1.158   1.158   1.158   1.158   1.158   1.158   1.158   1.158   1.158   1.158   1.158   1.158   1.158   1.158   1.158   1.158   1.158   1.158   1.158   1.158   1.158   1.158   1.158
    64.19    1.158   1.158   1.158   1.158   1.158   1.158   1.158   1.158   1.158   1.158   1.158   1.158   1.158   1.158   1.158   1.158   1.158   1.158   1.158   1.158   1.158   1.158   1.158   1.158   1.158   1.158
    62.46    1.158   1.158   1.158   1.158   1.158   1.158   1.158   1.158   1.158   1.158   1.158   1.158   1.158   1.158   1.158   1.158   1.158   1.158   1.158   1.158   1.158   1.158   1.158   1.158   1.158   1.158
    60.73    1.158   1.158   1.158   1.158   1.158   1.158   1.158   1.158   1.158   1.158   1.158   1.158   1.158   1.158   1.158   1.158   1.158   1.158   1.158   1.158   1.158   1.158   1.158   1.158   1.158   1.158
    59.01    1.158   1.158   1.158   1.158   1.158   1.158   1.158   1.158   1.158   1.158   1.158   1.158   1.158   1.158   1.158   1.158   1.158   1.158   1.158   1.158   1.158   1.158   1.158   1.158   1.158   1.158
    57.28    1.158   1.158   1.158   1.158   1.158   1.158   1.158   1.158   1.158   1.158   1.158   1.158   1.158   1.158   1.158   1.158   1.158   1.158   1.158   1.158   1.158   1.158   1.158   1.158   1.158   1.158
    55.55    1.158   1.158   1.158   1.158   1.158   1.158   1.158   1.158   1.158   1.158   1.158   1.158   1.158   1.158   1.158   1.158   1.158   1.158   1.158   1.158   1.158   1.158   1.158   1.158   1.158   1.158
    53.83    1.158   1.158   1.158   1.158   1.158   1.158   1.158   1.158   1.158   1.158   1.158   1.158   1.158   1.158   1.158   1.158   1.158   1.158   1.158   1.158   1.158   1.158   1.158   1.158   1.158   1.158
    52.10    1.158   1.158   1.158   1.158   1.158   1.158   1.158   1.158   1.158   1.158   1.158   1.158   1.158   1.158   1.158   1.158   1.158   1.158   1.158   1.158   1.158   1.158   1.158   1.158   1.158   1.158
    50.37    1.158   1.158   1.158   1.158   1.158   1.158   1.158   1.158   1.158   1.158   1.158   1.158   1.158   1.158   1.158   1.158   1.158   1.158   1.158   1.158   1.158   1.158   1.158   1.158   1.158   1.158
    48.65    1.158   1.158   1.158   1.158   1.158   1.158   1.158   1.158   1.158   1.158   1.158   1.158   1.158   1.158   1.158   1.158   1.158   1.158   1.158   1.158   1.158   1.158   1.158   1.158   1.158   1.158
    46.92    1.158   1.158   1.158   1.158   1.158   1.158   1.158   1.158   1.158   1.158   1.158   1.158   1.158   1.158   1.158   1.158   1.158   1.158   1.158   1.158   1.158   1.158   1.158   1.158   1.158   1.158
    45.19    1.158   1.158   1.158   1.158   1.158   1.158   1.158   1.158   1.158   1.158   1.158   1.158   1.158   1.158   1.158   1.158   1.158   1.158   1.158   1.158   1.158   1.158   1.158   1.158   1.158   1.158
    43.46    1.158   1.158   1.158   1.158   1.158   1.158   1.158   1.158   1.158   1.158   1.158   1.158   1.158   1.158   1.158   1.158   1.158   1.158   1.158   1.158   1.158   1.158   1.158   1.158   1.158   1.158
    41.74    1.158   1.158   1.158   1.158   1.158   1.158   1.158   1.158   1.158   1.158   1.158   1.158   1.158   1.158   1.158   1.158   1.158   1.158   1.158   1.158   1.158   1.158   1.158   1.158   1.158   1.158
    40.01    1.158   1.158   1.158   1.158   1.158   1.158   1.158   1.158   1.158   1.158   1.158   1.158   1.158   1.158   1.158   1.158   1.158   1.158   1.158   1.158   1.158   1.158   1.158   1.158   1.158   1.158
    38.28    1.158   1.158   1.158   1.158   1.158   1.158   1.158   1.158   1.158   1.158   1.158   1.158   1.158   1.158   1.158   1.158   1.158   1.158   1.158   1.158   1.158   1.158   1.158   1.158   1.158   1.158
    36.56    1.158   1.158   1.158   1.158   1.158   1.158   1.158   1.158   1.158   1.158   1.158   1.158   1.158   1.158   1.158   1.158   1.158   1.158   1.158   1.158   1.158   1.158   1.158   1.158   1.158   1.158
    34.83    1.158   1.158   1.158   1.158   1.158   1.158   1.158   1.158   1.158   1.158   1.158   1.158   1.158   1.158   1.158   1.158   1.158   1.158   1.158   1.158   1.158   1.158   1.158   1.158   1.158   1.158
    33.10    1.158   1.158   1.158   1.158   1.158   1.158   1.158   1.158   1.158   1.158   1.158   1.158   1.158   1.158   1.158   1.158   1.158   1.158   1.158   1.158   1.158   1.158   1.158   1.158   1.158   1.158
    31.37    1.158   1.158   1.158   1.158   1.158   1.158   1.158   1.158   1.158   1.158   1.158   1.158   1.158   1.158   1.158   1.158   1.158   1.158   1.158   1.158   1.158   1.158   1.158   1.158   1.158   1.158
    29.65    1.158   1.158   1.158   1.158   1.158   1.158   1.158   1.158   1.158   1.158   1.158   1.158   1.158   1.158   1.158   1.158   1.158   1.158   1.158   1.158   1.158   1.158   1.158   1.158   1.158   1.158
    27.92    1.158   1.158   1.158   1.158   1.158   1.158   1.158   1.158   1.158   1.158   1.158   1.158   1.158   1.158   1.158   1.158   1.158   1.158   1.158   1.158   1.158   1.158   1.158   1.158   1.158   1.158
    26.19    1.158   1.158   1.158   1.158   1.158   1.158   1.158   1.158   1.158   1.158   1.158   1.158   1.158   1.158   1.158   1.158   1.158   1.158   1.158   1.158   1.158   1.158   1.158   1.158   1.158   1.158
    24.47    1.158   1.158   1.158   1.158   1.158   1.158   1.158   1.158   1.158   1.158   1.158   1.158   1.158   1.158   1.158   1.158   1.158   1.158   1.158   1.158   1.158   1.158   1.158   1.158   1.158   1.158
    22.74    1.158   1.158   1.158   1.158   1.158   1.158   1.158   1.158   1.158   1.158   1.158   1.158   1.158   1.158   1.158   1.158   1.158   1.158   1.158   1.158   1.158   1.158   1.158   1.158   1.158   1.158
    21.01    1.158   1.158   1.158   1.158   1.158   1.158   1.158   1.158   1.158   1.158   1.158   1.158   1.158   1.158   1.158   1.158   1.158   1.158   1.158   1.158   1.158   1.158   1.158   1.158   1.158   1.158
    19.29    1.158   1.158   1.158   1.158   1.158   1.158   1.158   1.158   1.158   1.158   1.158   1.158   1.158   1.158   1.158   1.158   1.158   1.158   1.158   1.158   1.158   1.158   1.158   1.158   1.158   1.158
    17.56    1.158   1.158   1.158   1.158   1.158   1.158   1.158   1.158   1.158   1.158   1.158   1.158   1.158   1.158   1.158   1.158   1.158   1.158   1.158   1.158   1.158   1.158   1.158   1.158   1.158   1.158
    15.83    1.158   1.158   1.158   1.158   1.158   1.158   1.158   1.158   1.158   1.158   1.158   1.158   1.158   1.158   1.158   1.158   1.158   1.158   1.158   1.158   1.158   1.158   1.158   1.158   1.158   1.158
    14.10    1.158   1.158   1.158   1.158   1.158   1.158   1.158   1.158   1.158   1.158   1.158   1.158   1.158   1.158   1.158   1.158   1.158   1.158   1.158   1.158   1.158   1.158   1.158   1.158   1.158   1.158
    12.38    1.158   1.158   1.158   1.158   1.158   1.158   1.158   1.158   1.158   1.158   1.158   1.158   1.158   1.158   1.158   1.158   1.158   1.158   1.158   1.158   1.158   1.158   1.158   1.158   1.158   1.158
    10.65    1.158   1.158   1.158   1.158   1.158   1.158   1.158   1.158   1.158   1.158   1.158   1.158   1.158   1.158   1.158   1.158   1.158   1.158   1.158   1.158   1.158   1.158   1.158   1.158   1.158   1.158

   Height   Standard deviation at grid points for the w component:
    74.55    0.733   0.733   0.733   0.733   0.733   0.733   0.733   0.733   0.733   0.733   0.733   0.733   0.733   0.733   0.733   0.733   0.733   0.733   0.733   0.733   0.733   0.733   0.733   0.733   0.733   0.733
    72.82    0.733   0.733   0.733   0.733   0.733   0.733   0.733   0.733   0.733   0.733   0.733   0.733   0.733   0.733   0.733   0.733   0.733   0.733   0.733   0.733   0.733   0.733   0.733   0.733   0.733   0.733
    71.10    0.733   0.733   0.733   0.733   0.733   0.733   0.733   0.733   0.733   0.733   0.733   0.733   0.733   0.733   0.733   0.733   0.733   0.733   0.733   0.733   0.733   0.733   0.733   0.733   0.733   0.733
    69.37    0.733   0.733   0.733   0.733   0.733   0.733   0.733   0.733   0.733   0.733   0.733   0.733   0.733   0.733   0.733   0.733   0.733   0.733   0.733   0.733   0.733   0.733   0.733   0.733   0.733   0.733
    67.64    0.733   0.733   0.733   0.733   0.733   0.733   0.733   0.733   0.733   0.733   0.733   0.733   0.733   0.733   0.733   0.733   0.733   0.733   0.733   0.733   0.733   0.733   0.733   0.733   0.733   0.733
    65.92    0.733   0.733   0.733   0.733   0.733   0.733   0.733   0.733   0.733   0.733   0.733   0.733   0.733   0.733   0.733   0.733   0.733   0.733   0.733   0.733   0.733   0.733   0.733   0.733   0.733   0.733
    64.19    0.733   0.733   0.733   0.733   0.733   0.733   0.733   0.733   0.733   0.733   0.733   0.733   0.733   0.733   0.733   0.733   0.733   0.733   0.733   0.733   0.733   0.733   0.733   0.733   0.733   0.733
    62.46    0.733   0.733   0.733   0.733   0.733   0.733   0.733   0.733   0.733   0.733   0.733   0.733   0.733   0.733   0.733   0.733   0.733   0.733   0.733   0.733   0.733   0.733   0.733   0.733   0.733   0.733
    60.73    0.733   0.733   0.733   0.733   0.733   0.733   0.733   0.733   0.733   0.733   0.733   0.733   0.733   0.733   0.733   0.733   0.733   0.733   0.733   0.733   0.733   0.733   0.733   0.733   0.733   0.733
    59.01    0.733   0.733   0.733   0.733   0.733   0.733   0.733   0.733   0.733   0.733   0.733   0.733   0.733   0.733   0.733   0.733   0.733   0.733   0.733   0.733   0.733   0.733   0.733   0.733   0.733   0.733
    57.28    0.733   0.733   0.733   0.733   0.733   0.733   0.733   0.733   0.733   0.733   0.733   0.733   0.733   0.733   0.733   0.733   0.733   0.733   0.733   0.733   0.733   0.733   0.733   0.733   0.733   0.733
    55.55    0.733   0.733   0.733   0.733   0.733   0.733   0.733   0.733   0.733   0.733   0.733   0.733   0.733   0.733   0.733   0.733   0.733   0.733   0.733   0.733   0.733   0.733   0.733   0.733   0.733   0.733
    53.83    0.733   0.733   0.733   0.733   0.733   0.733   0.733   0.733   0.733   0.733   0.733   0.733   0.733   0.733   0.733   0.733   0.733   0.733   0.733   0.733   0.733   0.733   0.733   0.733   0.733   0.733
    52.10    0.733   0.733   0.733   0.733   0.733   0.733   0.733   0.733   0.733   0.733   0.733   0.733   0.733   0.733   0.733   0.733   0.733   0.733   0.733   0.733   0.733   0.733   0.733   0.733   0.733   0.733
    50.37    0.733   0.733   0.733   0.733   0.733   0.733   0.733   0.733   0.733   0.733   0.733   0.733   0.733   0.733   0.733   0.733   0.733   0.733   0.733   0.733   0.733   0.733   0.733   0.733   0.733   0.733
    48.65    0.733   0.733   0.733   0.733   0.733   0.733   0.733   0.733   0.733   0.733   0.733   0.733   0.733   0.733   0.733   0.733   0.733   0.733   0.733   0.733   0.733   0.733   0.733   0.733   0.733   0.733
    46.92    0.733   0.733   0.733   0.733   0.733   0.733   0.733   0.733   0.733   0.733   0.733   0.733   0.733   0.733   0.733   0.733   0.733   0.733   0.733   0.733   0.733   0.733   0.733   0.733   0.733   0.733
    45.19    0.733   0.733   0.733   0.733   0.733   0.733   0.733   0.733   0.733   0.733   0.733   0.733   0.733   0.733   0.733   0.733   0.733   0.733   0.733   0.733   0.733   0.733   0.733   0.733   0.733   0.733
    43.46    0.733   0.733   0.733   0.733   0.733   0.733   0.733   0.733   0.733   0.733   0.733   0.733   0.733   0.733   0.733   0.733   0.733   0.733   0.733   0.733   0.733   0.733   0.733   0.733   0.733   0.733
    41.74    0.733   0.733   0.733   0.733   0.733   0.733   0.733   0.733   0.733   0.733   0.733   0.733   0.733   0.733   0.733   0.733   0.733   0.733   0.733   0.733   0.733   0.733   0.733   0.733   0.733   0.733
    40.01    0.733   0.733   0.733   0.733   0.733   0.733   0.733   0.733   0.733   0.733   0.733   0.733   0.733   0.733   0.733   0.733   0.733   0.733   0.733   0.733   0.733   0.733   0.733   0.733   0.733   0.733
    38.28    0.733   0.733   0.733   0.733   0.733   0.733   0.733   0.733   0.733   0.733   0.733   0.733   0.733   0.733   0.733   0.733   0.733   0.733   0.733   0.733   0.733   0.733   0.733   0.733   0.733   0.733
    36.56    0.733   0.733   0.733   0.733   0.733   0.733   0.733   0.733   0.733   0.733   0.733   0.733   0.733   0.733   0.733   0.733   0.733   0.733   0.733   0.733   0.733   0.733   0.733   0.733   0.733   0.733
    34.83    0.733   0.733   0.733   0.733   0.733   0.733   0.733   0.733   0.733   0.733   0.733   0.733   0.733   0.733   0.733   0.733   0.733   0.733   0.733   0.733   0.733   0.733   0.733   0.733   0.733   0.733
    33.10    0.733   0.733   0.733   0.733   0.733   0.733   0.733   0.733   0.733   0.733   0.733   0.733   0.733   0.733   0.733   0.733   0.733   0.733   0.733   0.733   0.733   0.733   0.733   0.733   0.733   0.733
    31.37    0.733   0.733   0.733   0.733   0.733   0.733   0.733   0.733   0.733   0.733   0.733   0.733   0.733   0.733   0.733   0.733   0.733   0.733   0.733   0.733   0.733   0.733   0.733   0.733   0.733   0.733
    29.65    0.733   0.733   0.733   0.733   0.733   0.733   0.733   0.733   0.733   0.733   0.733   0.733   0.733   0.733   0.733   0.733   0.733   0.733   0.733   0.733   0.733   0.733   0.733   0.733   0.733   0.733
    27.92    0.733   0.733   0.733   0.733   0.733   0.733   0.733   0.733   0.733   0.733   0.733   0.733   0.733   0.733   0.733   0.733   0.733   0.733   0.733   0.733   0.733   0.733   0.733   0.733   0.733   0.733
    26.19    0.733   0.733   0.733   0.733   0.733   0.733   0.733   0.733   0.733   0.733   0.733   0.733   0.733   0.733   0.733   0.733   0.733   0.733   0.733   0.733   0.733   0.733   0.733   0.733   0.733   0.733
    24.47    0.733   0.733   0.733   0.733   0.733   0.733   0.733   0.733   0.733   0.733   0.733   0.733   0.733   0.733   0.733   0.733   0.733   0.733   0.733   0.733   0.733   0.733   0.733   0.733   0.733   0.733
    22.74    0.733   0.733   0.733   0.733   0.733   0.733   0.733   0.733   0.733   0.733   0.733   0.733   0.733   0.733   0.733   0.733   0.733   0.733   0.733   0.733   0.733   0.733   0.733   0.733   0.733   0.733
    21.01    0.733   0.733   0.733   0.733   0.733   0.733   0.733   0.733   0.733   0.733   0.733   0.733   0.733   0.733   0.733   0.733   0.733   0.733   0.733   0.733   0.733   0.733   0.733   0.733   0.733   0.733
    19.29    0.733   0.733   0.733   0.733   0.733   0.733   0.733   0.733   0.733   0.733   0.733   0.733   0.733   0.733   0.733   0.733   0.733   0.733   0.733   0.733   0.733   0.733   0.733   0.733   0.733   0.733
    17.56    0.733   0.733   0.733   0.733   0.733   0.733   0.733   0.733   0.733   0.733   0.733   0.733   0.733   0.733   0.733   0.733   0.733   0.733   0.733   0.733   0.733   0.733   0.733   0.733   0.733   0.733
    15.83    0.733   0.733   0.733   0.733   0.733   0.733   0.733   0.733   0.733   0.733   0.733   0.733   0.733   0.733   0.733   0.733   0.733   0.733   0.733   0.733   0.733   0.733   0.733   0.733   0.733   0.733
    14.10    0.733   0.733   0.733   0.733   0.733   0.733   0.733   0.733   0.733   0.733   0.733   0.733   0.733   0.733   0.733   0.733   0.733   0.733   0.733   0.733   0.733   0.733   0.733   0.733   0.733   0.733
    12.38    0.733   0.733   0.733   0.733   0.733   0.733   0.733   0.733   0.733   0.733   0.733   0.733   0.733   0.733   0.733   0.733   0.733   0.733   0.733   0.733   0.733   0.733   0.733   0.733   0.733   0.733
    10.65    0.733   0.733   0.733   0.733   0.733   0.733   0.733   0.733   0.733   0.733   0.733   0.733   0.733   0.733   0.733   0.733   0.733   0.733   0.733   0.733   0.733   0.733   0.733   0.733   0.733   0.733

   Mean standard deviation across all grid points:
      u component:    1.301 m/s
      v component:    1.158 m/s
      w component:    0.733 m/s


U-component (X) statistics from the interpolated hub point:

   Mean =   4.9905 m/s
   TI   =  28.1468 %


Processing complete.  231.89 CPU seconds used.
