
This summary file was generated by TurbSim (from OpenFAST-v2.5.0-3490-g24c05a74) on 12-Nov-2024 at 19:20:42.


Runtime Options:

     40071  Random seed #1
    RANLUX  Type of random number generator
         F  Output binary HH turbulence parameters?
         F  Output formatted turbulence parameters?
         F  Output AeroDyn HH files?
         T  Output AeroDyn FF files?
         F  Output BLADED FF files?
         F  Output tower data?
         F  Output HAWC FF files?
         F  Output formatted FF files?
         T  Output coherent turbulence time step file?
 0 -  NONE  IEC turbulence models scaled to exact specified standard deviation


Turbine/Model Specifications:

        38  Vertical grid-point matrix dimension
        26  Horizontal grid-point matrix dimension
     0.050  Time step [seconds]
    30.000  Analysis time [seconds]
    30.000  Usable output time [seconds]
    48.410  Hub height [m]
    72.614  Grid height [m]
   135.028  Grid width [m]
     0.000  Vertical flow angle [degrees]
     0.000  Horizontal flow angle [degrees]


Meteorological Boundary Conditions:

    IECKAI  IEC Kaimal spectral model
         1  IEC standard: IEC 61400-1 Ed. 3: 2005
         A  IEC turbulence characteristic
       NTM  IEC Normal Turbulence Model
       N/A  IEC Extreme Turbulence Model (ETM) "c" parameter [m/s]
       PL   Wind profile type
     3.000  Reference height [m]
    15.000  Reference wind speed [m/s]
       N/A  Jet height [m]
     0.200  Power law exponent
     0.030  Surface roughness length [m]


Non-IEC Meteorological Boundary Conditions:

       N/A  Site latitude [degrees]
       N/A  Gradient Richardson number
       N/A  Friction or shear velocity [m/s]
       N/A  Mixing layer depth [m]
       N/A  Mean hub u'w' Reynolds stress
       N/A  Mean hub u'v' Reynolds stress
       N/A  Mean hub v'w' Reynolds stress


Spatial Coherence Models:

       IEC  u-component coherence model
      NONE  v-component coherence model
      NONE  w-component coherence model
(   12.000, 0.437E-03)  u-component coherence parameters
                   N/A  v-component coherence parameters
                   N/A  w-component coherence parameters
       N/A  Coherence exponent


You have requested that the following file(s) be generated:

   ./turbsimfiles/DLC1_1Vinf15.0.bts (AeroDyn/TurbSim full-field wind file)


Turbulence Simulation Scaling Parameter Summary:

   Turbulence model used                            =  IEC Kaimal
   Turbulence characteristic                        =  A
   IEC turbulence type                              =  Normal Turbulence Model
   IEC standard                                     =  IEC 61400-1 Ed. 3: 2005
   Mean wind speed at hub height                    =   26.161 m/s
   Expected value of turbulence intensity at 15 m/s =   16.000%
   Characteristic value of standard deviation       =    4.035 m/s
   Turbulence scale                                 =   33.887 m
   u-component integral scale                       =  274.482 m
   Coherency scale                                  =  274.482 m
   Characteristic value of hub turbulence intensity =   15.425%
   Gradient Richardson number                       =    0.000

   Wind profile type                                =  Power law
   Power law exponent                               =    0.200
   Mean shear across rotor disk                     =    0.130 (m/s)/m
   Assumed rotor diameter                           =   72.614 m
   Surface roughness length                         =    0.030 m

   Nyquist frequency of turbulent wind field        =   10.000 Hz

   Number of time steps in the FFT                  =      600
   Number of time steps output                      =      600
   Number of points simulated                       =      989


Mean Flow Angles:

   Vertical   =   0.0 degrees
   Horizontal =   0.0 degrees

Mean Wind Speed Profile:

   Height    Wind Speed   Horizontal Angle  Vertical Angle  U-comp (X)   V-comp (Y)   W-comp (Z)
     (m)        (m/s)         (degrees)       (degrees)       (m/s)        (m/s)        (m/s)   
   ------    ----------   ----------------  --------------  ----------   ----------   ----------
     84.7       29.26            0.00            0.00         29.26         0.00         0.00
     82.8       29.12            0.00            0.00         29.12         0.00         0.00
     80.8       28.98            0.00            0.00         28.98         0.00         0.00
     78.8       28.84            0.00            0.00         28.84         0.00         0.00
     76.9       28.70            0.00            0.00         28.70         0.00         0.00
     74.9       28.55            0.00            0.00         28.55         0.00         0.00
     72.9       28.40            0.00            0.00         28.40         0.00         0.00
     71.0       28.24            0.00            0.00         28.24         0.00         0.00
     69.0       28.08            0.00            0.00         28.08         0.00         0.00
     67.1       27.92            0.00            0.00         27.92         0.00         0.00
     65.1       27.76            0.00            0.00         27.76         0.00         0.00
     63.1       27.59            0.00            0.00         27.59         0.00         0.00
     61.2       27.41            0.00            0.00         27.41         0.00         0.00
     59.2       27.24            0.00            0.00         27.24         0.00         0.00
     57.2       27.05            0.00            0.00         27.05         0.00         0.00
     55.3       26.86            0.00            0.00         26.86         0.00         0.00
     53.3       26.67            0.00            0.00         26.67         0.00         0.00
     51.4       26.47            0.00            0.00         26.47         0.00         0.00
     49.4       26.27            0.00            0.00         26.27         0.00         0.00
     48.4       26.16            0.00            0.00         26.16         0.00         0.00
     47.4       26.05            0.00            0.00         26.05         0.00         0.00
     45.5       25.83            0.00            0.00         25.83         0.00         0.00
     43.5       25.61            0.00            0.00         25.61         0.00         0.00
     41.5       25.37            0.00            0.00         25.37         0.00         0.00
     39.6       25.13            0.00            0.00         25.13         0.00         0.00
     37.6       24.87            0.00            0.00         24.87         0.00         0.00
     35.7       24.61            0.00            0.00         24.61         0.00         0.00
     33.7       24.33            0.00            0.00         24.33         0.00         0.00
     31.7       24.04            0.00            0.00         24.04         0.00         0.00
     29.8       23.74            0.00            0.00         23.74         0.00         0.00
     27.8       23.41            0.00            0.00         23.41         0.00         0.00
     25.8       23.07            0.00            0.00         23.07         0.00         0.00
     23.9       22.71            0.00            0.00         22.71         0.00         0.00
     21.9       22.33            0.00            0.00         22.33         0.00         0.00
     20.0       21.91            0.00            0.00         21.91         0.00         0.00
     18.0       21.46            0.00            0.00         21.46         0.00         0.00
     16.0       20.97            0.00            0.00         20.97         0.00         0.00
     14.1       20.43            0.00            0.00         20.43         0.00         0.00
     12.1       19.83            0.00            0.00         19.83         0.00         0.00


Harvested Random Seeds after Generation of the Random Numbers:

      8270413 K 1
            0 K 2


Hub-Height Simulated Turbulence Statistical Summary:

   Type of Wind        Min (m/s)   Mean (m/s)    Max (m/s)  Sigma (m/s)       TI (%)
   ----------------    ---------   ----------    ---------  -----------       ------
   Longitudinal (u)        18.84        26.16        32.18        2.529        9.666
   Lateral (v)             -7.46         0.00         8.70        2.853       10.905
   Vertical (w)            -4.49        -0.00         5.46        1.886        7.211
   U component             18.84        26.16        32.18        2.529        9.666
   V component             -7.46         0.00         8.70        2.853       10.905
   W component             -4.49        -0.00         5.46        1.886        7.211
   Horizontal (U&V)        19.10        26.31        32.19        2.559        9.726
   Total                   19.31        26.38        32.22        2.550        9.667

                       Min Reynolds     Mean Reynolds    Max Reynolds    Correlation
   Product             Stress (m/s)^2   Stress (m/s)^2   Stress (m/s)^2  Coefficient
   ----------------    --------------   --------------   --------------  -----------
   u'w'                    -31.308            -0.890            13.568        -0.187
   u'v'                    -20.529             1.633            27.177         0.226
   v'w'                    -38.477            -1.086            25.099        -0.202


   Friction Velocity (Ustar)  =      0.943 m/s
   Maximum Instantaneous TKE  =     49.828 (m/s)^2
   Maximum Instantaneous CTKE =     23.761 (m/s)^2


Grid Point Variance Summary:

   Y-coord  -67.51  -62.11  -56.71  -51.31  -45.91  -40.51  -35.11  -29.71  -24.31  -18.90  -13.50   -8.10   -2.70    2.70    8.10   13.50   18.90   24.31   29.71   35.11   40.51   45.91   51.31   56.71   62.11   67.51

   Height   Standard deviation at grid points for the u component:
    84.72    2.986   3.345   3.048   2.841   2.707   2.578   2.909   3.049   3.441   3.217   2.685   2.778   2.991   3.623   3.964   3.827   4.082   3.622   2.989   3.235   3.183   2.336   2.616   2.752   2.611   3.273
    82.75    2.780   3.204   3.374   2.859   3.054   2.895   2.571   3.159   3.359   3.162   2.962   2.940   3.102   3.576   3.748   3.824   3.792   3.657   3.013   3.355   2.800   2.517   2.639   2.643   2.777   3.390
    80.79    2.563   2.793   3.085   2.727   3.108   2.855   2.422   3.375   3.557   2.933   3.220   3.052   2.660   3.412   3.145   4.013   3.506   3.252   3.198   3.272   2.997   2.783   2.618   2.688   2.917   3.250
    78.83    2.942   2.793   2.763   2.335   2.840   2.733   2.699   3.110   3.303   3.037   3.029   3.102   2.863   3.246   3.167   3.827   3.578   3.139   3.233   3.480   2.855   2.730   2.786   2.778   2.630   3.046
    76.87    2.903   2.842   2.677   2.462   3.175   2.996   2.751   3.203   3.163   3.001   3.348   3.025   2.776   2.685   3.268   3.671   3.634   3.316   3.504   3.825   2.707   3.264   2.874   2.696   2.918   2.641
    74.90    2.589   2.966   2.713   2.744   2.982   3.044   2.390   2.888   2.841   2.843   3.452   2.905   2.848   2.670   2.985   3.569   3.871   3.446   3.051   3.587   2.913   3.131   2.679   2.908   2.910   2.877
    72.94    2.619   2.884   2.819   2.890   2.786   2.806   2.507   2.484   2.891   2.579   3.335   3.134   3.136   2.719   3.168   3.662   3.849   3.526   3.001   3.547   3.281   2.809   3.105   2.778   2.554   2.811
    70.98    2.985   3.037   3.029   2.935   3.267   3.019   3.041   2.208   2.879   2.949   2.960   2.972   2.776   3.203   3.379   3.455   3.596   3.418   3.204   3.379   3.429   3.190   3.102   3.051   2.655   3.095
    69.02    3.660   3.209   3.369   2.976   2.966   2.982   2.979   2.336   2.713   3.282   3.034   2.744   2.899   3.028   3.161   3.122   3.073   3.402   3.450   3.695   3.940   3.461   3.327   3.444   3.083   3.033
    67.05    3.347   3.327   3.498   3.447   3.063   2.903   2.595   2.600   3.073   3.730   3.114   2.832   2.879   3.165   3.576   3.106   2.853   3.239   3.765   3.607   3.691   3.320   3.527   3.250   3.218   3.351
    65.09    3.263   3.571   3.370   3.531   2.996   3.075   2.583   2.721   3.309   3.621   3.160   2.711   2.525   2.804   3.428   2.698   3.099   3.325   3.582   3.604   3.583   2.910   3.435   3.163   3.403   3.177
    63.13    3.430   3.429   3.242   3.342   3.398   3.104   2.373   2.695   3.472   3.721   3.049   2.789   2.644   2.614   3.267   3.020   2.683   3.130   3.281   3.795   3.369   3.097   3.212   3.281   3.163   3.372
    61.17    3.107   3.024   3.316   3.166   3.740   3.089   2.663   2.962   3.373   3.291   3.329   3.217   2.546   2.801   3.189   3.020   3.207   2.492   2.930   3.513   3.570   3.387   3.092   3.275   3.112   3.439
    59.20    3.281   3.349   3.932   4.085   3.627   3.057   2.539   3.202   3.492   3.448   3.138   3.127   2.459   3.211   3.063   2.902   3.109   2.607   2.503   3.683   3.551   2.985   2.986   2.671   2.863   3.706
    57.24    2.930   3.357   3.899   4.116   3.692   3.212   2.847   3.059   3.130   3.354   3.107   3.038   2.824   3.104   3.133   3.197   2.976   2.676   2.944   3.408   3.357   3.020   2.741   2.725   3.025   3.835
    55.28    3.506   3.488   4.008   3.945   3.346   3.127   3.135   3.251   3.030   3.691   3.001   3.154   3.023   2.569   2.968   2.888   2.889   2.695   2.790   3.376   3.240   3.095   3.036   2.915   2.981   3.826
    53.32    3.297   3.544   4.268   3.555   2.943   3.379   3.160   3.053   3.424   3.781   2.985   3.128   3.038   2.704   3.084   2.621   2.867   2.842   2.619   3.293   3.151   3.436   3.320   2.717   2.832   3.471
    51.35    3.024   3.503   3.928   3.644   3.105   3.735   3.528   3.216   3.440   3.476   3.364   3.106   2.852   2.962   3.183   3.098   3.202   2.926   3.290   3.064   3.232   3.512   3.298   3.272   2.746   2.998
    49.39    3.412   3.255   3.576   3.488   3.389   3.682   3.347   3.147   3.676   3.462   3.044   3.052   2.766   2.655   3.067   2.964   2.888   2.984   3.191   3.114   3.668   3.543   2.890   3.030   2.591   2.871
    47.43    3.114   3.161   3.345   3.637   3.384   3.266   3.246   2.747   3.440   3.246   2.976   3.292   2.516   2.294   2.731   2.827   3.254   3.228   3.095   2.941   3.813   3.284   3.088   2.918   3.170   2.640
    45.47    3.038   3.475   3.471   3.802   3.268   3.022   2.963   3.119   3.178   3.433   3.304   3.258   2.414   2.381   2.714   3.090   3.564   3.540   3.573   3.294   3.639   3.228   3.455   3.533   2.929   2.530
    43.50    3.196   3.689   3.624   3.566   3.133   3.195   2.755   2.961   3.278   3.386   2.773   3.172   2.914   2.599   2.796   2.926   3.828   3.485   3.871   3.639   3.614   3.463   3.576   3.740   2.923   2.502
    41.54    3.061   3.619   3.525   3.384   3.478   3.138   3.154   3.249   3.085   2.767   3.238   3.085   3.038   2.570   2.390   2.857   3.948   3.970   4.294   3.787   4.037   3.509   3.895   3.675   2.973   2.239
    39.58    3.113   3.890   3.605   3.082   3.355   2.882   3.407   3.194   3.097   3.098   3.449   2.989   2.914   2.561   2.583   2.727   3.584   3.920   4.302   4.071   3.792   3.542   3.821   3.479   3.017   2.414
    37.62    3.292   3.533   3.421   3.384   3.293   2.691   3.321   3.263   2.980   2.961   3.129   3.179   2.403   2.612   2.663   3.042   3.471   3.661   4.009   4.090   3.865   3.807   3.774   3.320   2.805   2.612
    35.65    3.417   3.727   3.055   3.359   2.981   3.026   2.962   2.888   3.237   2.759   2.989   2.987   2.721   2.613   2.711   2.757   3.355   4.140   4.129   3.722   3.640   3.524   3.469   3.345   2.919   2.695
    33.69    3.266   3.340   2.838   3.387   3.030   3.242   3.233   2.518   2.771   2.619   2.989   3.298   2.636   2.494   3.058   2.766   3.693   4.625   4.505   4.021   4.058   3.469   3.877   3.208   2.620   2.682
    31.73    2.835   3.138   2.752   3.539   3.159   3.575   2.949   2.939   2.636   2.292   3.008   3.042   2.564   2.506   2.818   2.928   3.560   4.381   4.157   3.864   3.874   3.502   3.826   3.262   3.058   2.680
    29.77    2.560   2.818   3.143   3.347   3.067   3.331   3.038   2.745   2.297   2.579   2.790   2.942   3.093   2.677   2.913   2.353   3.542   4.184   4.384   4.074   4.247   3.376   3.576   3.015   2.976   3.025
    27.80    2.535   2.847   3.470   3.831   3.153   3.182   3.632   2.756   2.513   2.432   2.574   2.909   3.077   2.684   2.948   2.645   3.456   3.820   4.002   3.966   3.876   3.592   3.226   2.889   2.835   2.873
    25.84    2.707   2.927   3.579   3.524   3.244   3.120   3.623   2.903   2.652   2.082   2.247   3.025   2.913   2.736   2.957   2.727   3.133   3.951   3.799   4.031   3.510   3.532   3.454   3.443   2.754   3.184
    23.88    2.713   3.014   3.285   3.324   3.104   3.284   3.405   3.374   2.739   2.172   2.470   2.848   2.872   2.753   3.254   2.662   2.950   3.716   3.342   3.404   3.890   3.515   4.039   3.825   3.074   3.301
    21.92    3.062   2.816   3.491   3.204   2.928   3.036   3.079   2.868   2.865   2.554   2.548   2.909   2.830   2.838   3.340   2.994   3.079   3.402   3.114   3.001   3.652   3.406   3.652   3.735   3.452   3.077
    19.95    3.167   2.861   3.477   2.990   3.246   3.101   2.941   2.514   2.837   2.288   2.180   2.643   2.562   2.897   3.001   2.789   2.794   3.343   2.999   2.727   3.411   3.480   3.745   3.547   3.589   2.870
    17.99    3.502   3.369   3.325   2.983   2.966   2.885   2.666   2.333   2.847   2.543   2.319   2.673   2.678   2.549   2.833   2.947   2.843   3.637   3.110   2.948   3.175   3.614   3.381   3.897   3.442   2.935
    16.03    3.428   2.762   2.900   2.874   2.629   2.696   2.579   2.538   2.972   2.328   2.269   2.370   2.451   2.635   2.905   2.652   2.841   3.463   3.144   3.406   3.124   3.111   3.446   3.648   2.713   2.950
    14.06    3.174   2.622   2.843   2.765   2.682   2.309   2.193   2.644   2.927   2.334   2.376   2.637   2.581   3.238   3.220   2.665   2.568   3.125   3.509   3.759   2.975   2.936   3.210   3.370   2.996   2.861
    12.10    3.078   2.475   2.455   2.602   2.312   2.110   2.082   2.483   2.851   2.530   2.387   2.751   3.090   3.092   2.920   2.544   2.899   2.794   3.407   3.385   2.612   2.576   2.786   3.233   3.129   3.295

   Height   Standard deviation at grid points for the v component:
    84.72    2.853   2.853   2.853   2.853   2.853   2.853   2.853   2.853   2.853   2.853   2.853   2.853   2.853   2.853   2.853   2.853   2.853   2.853   2.853   2.853   2.853   2.853   2.853   2.853   2.853   2.853
    82.75    2.853   2.853   2.853   2.853   2.853   2.853   2.853   2.853   2.853   2.853   2.853   2.853   2.853   2.853   2.853   2.853   2.853   2.853   2.853   2.853   2.853   2.853   2.853   2.853   2.853   2.853
    80.79    2.853   2.853   2.853   2.853   2.853   2.853   2.853   2.853   2.853   2.853   2.853   2.853   2.853   2.853   2.853   2.853   2.853   2.853   2.853   2.853   2.853   2.853   2.853   2.853   2.853   2.853
    78.83    2.853   2.853   2.853   2.853   2.853   2.853   2.853   2.853   2.853   2.853   2.853   2.853   2.853   2.853   2.853   2.853   2.853   2.853   2.853   2.853   2.853   2.853   2.853   2.853   2.853   2.853
    76.87    2.853   2.853   2.853   2.853   2.853   2.853   2.853   2.853   2.853   2.853   2.853   2.853   2.853   2.853   2.853   2.853   2.853   2.853   2.853   2.853   2.853   2.853   2.853   2.853   2.853   2.853
    74.90    2.853   2.853   2.853   2.853   2.853   2.853   2.853   2.853   2.853   2.853   2.853   2.853   2.853   2.853   2.853   2.853   2.853   2.853   2.853   2.853   2.853   2.853   2.853   2.853   2.853   2.853
    72.94    2.853   2.853   2.853   2.853   2.853   2.853   2.853   2.853   2.853   2.853   2.853   2.853   2.853   2.853   2.853   2.853   2.853   2.853   2.853   2.853   2.853   2.853   2.853   2.853   2.853   2.853
    70.98    2.853   2.853   2.853   2.853   2.853   2.853   2.853   2.853   2.853   2.853   2.853   2.853   2.853   2.853   2.853   2.853   2.853   2.853   2.853   2.853   2.853   2.853   2.853   2.853   2.853   2.853
    69.02    2.853   2.853   2.853   2.853   2.853   2.853   2.853   2.853   2.853   2.853   2.853   2.853   2.853   2.853   2.853   2.853   2.853   2.853   2.853   2.853   2.853   2.853   2.853   2.853   2.853   2.853
    67.05    2.853   2.853   2.853   2.853   2.853   2.853   2.853   2.853   2.853   2.853   2.853   2.853   2.853   2.853   2.853   2.853   2.853   2.853   2.853   2.853   2.853   2.853   2.853   2.853   2.853   2.853
    65.09    2.853   2.853   2.853   2.853   2.853   2.853   2.853   2.853   2.853   2.853   2.853   2.853   2.853   2.853   2.853   2.853   2.853   2.853   2.853   2.853   2.853   2.853   2.853   2.853   2.853   2.853
    63.13    2.853   2.853   2.853   2.853   2.853   2.853   2.853   2.853   2.853   2.853   2.853   2.853   2.853   2.853   2.853   2.853   2.853   2.853   2.853   2.853   2.853   2.853   2.853   2.853   2.853   2.853
    61.17    2.853   2.853   2.853   2.853   2.853   2.853   2.853   2.853   2.853   2.853   2.853   2.853   2.853   2.853   2.853   2.853   2.853   2.853   2.853   2.853   2.853   2.853   2.853   2.853   2.853   2.853
    59.20    2.853   2.853   2.853   2.853   2.853   2.853   2.853   2.853   2.853   2.853   2.853   2.853   2.853   2.853   2.853   2.853   2.853   2.853   2.853   2.853   2.853   2.853   2.853   2.853   2.853   2.853
    57.24    2.853   2.853   2.853   2.853   2.853   2.853   2.853   2.853   2.853   2.853   2.853   2.853   2.853   2.853   2.853   2.853   2.853   2.853   2.853   2.853   2.853   2.853   2.853   2.853   2.853   2.853
    55.28    2.853   2.853   2.853   2.853   2.853   2.853   2.853   2.853   2.853   2.853   2.853   2.853   2.853   2.853   2.853   2.853   2.853   2.853   2.853   2.853   2.853   2.853   2.853   2.853   2.853   2.853
    53.32    2.853   2.853   2.853   2.853   2.853   2.853   2.853   2.853   2.853   2.853   2.853   2.853   2.853   2.853   2.853   2.853   2.853   2.853   2.853   2.853   2.853   2.853   2.853   2.853   2.853   2.853
    51.35    2.853   2.853   2.853   2.853   2.853   2.853   2.853   2.853   2.853   2.853   2.853   2.853   2.853   2.853   2.853   2.853   2.853   2.853   2.853   2.853   2.853   2.853   2.853   2.853   2.853   2.853
    49.39    2.853   2.853   2.853   2.853   2.853   2.853   2.853   2.853   2.853   2.853   2.853   2.853   2.853   2.853   2.853   2.853   2.853   2.853   2.853   2.853   2.853   2.853   2.853   2.853   2.853   2.853
    47.43    2.853   2.853   2.853   2.853   2.853   2.853   2.853   2.853   2.853   2.853   2.853   2.853   2.853   2.853   2.853   2.853   2.853   2.853   2.853   2.853   2.853   2.853   2.853   2.853   2.853   2.853
    45.47    2.853   2.853   2.853   2.853   2.853   2.853   2.853   2.853   2.853   2.853   2.853   2.853   2.853   2.853   2.853   2.853   2.853   2.853   2.853   2.853   2.853   2.853   2.853   2.853   2.853   2.853
    43.50    2.853   2.853   2.853   2.853   2.853   2.853   2.853   2.853   2.853   2.853   2.853   2.853   2.853   2.853   2.853   2.853   2.853   2.853   2.853   2.853   2.853   2.853   2.853   2.853   2.853   2.853
    41.54    2.853   2.853   2.853   2.853   2.853   2.853   2.853   2.853   2.853   2.853   2.853   2.853   2.853   2.853   2.853   2.853   2.853   2.853   2.853   2.853   2.853   2.853   2.853   2.853   2.853   2.853
    39.58    2.853   2.853   2.853   2.853   2.853   2.853   2.853   2.853   2.853   2.853   2.853   2.853   2.853   2.853   2.853   2.853   2.853   2.853   2.853   2.853   2.853   2.853   2.853   2.853   2.853   2.853
    37.62    2.853   2.853   2.853   2.853   2.853   2.853   2.853   2.853   2.853   2.853   2.853   2.853   2.853   2.853   2.853   2.853   2.853   2.853   2.853   2.853   2.853   2.853   2.853   2.853   2.853   2.853
    35.65    2.853   2.853   2.853   2.853   2.853   2.853   2.853   2.853   2.853   2.853   2.853   2.853   2.853   2.853   2.853   2.853   2.853   2.853   2.853   2.853   2.853   2.853   2.853   2.853   2.853   2.853
    33.69    2.853   2.853   2.853   2.853   2.853   2.853   2.853   2.853   2.853   2.853   2.853   2.853   2.853   2.853   2.853   2.853   2.853   2.853   2.853   2.853   2.853   2.853   2.853   2.853   2.853   2.853
    31.73    2.853   2.853   2.853   2.853   2.853   2.853   2.853   2.853   2.853   2.853   2.853   2.853   2.853   2.853   2.853   2.853   2.853   2.853   2.853   2.853   2.853   2.853   2.853   2.853   2.853   2.853
    29.77    2.853   2.853   2.853   2.853   2.853   2.853   2.853   2.853   2.853   2.853   2.853   2.853   2.853   2.853   2.853   2.853   2.853   2.853   2.853   2.853   2.853   2.853   2.853   2.853   2.853   2.853
    27.80    2.853   2.853   2.853   2.853   2.853   2.853   2.853   2.853   2.853   2.853   2.853   2.853   2.853   2.853   2.853   2.853   2.853   2.853   2.853   2.853   2.853   2.853   2.853   2.853   2.853   2.853
    25.84    2.853   2.853   2.853   2.853   2.853   2.853   2.853   2.853   2.853   2.853   2.853   2.853   2.853   2.853   2.853   2.853   2.853   2.853   2.853   2.853   2.853   2.853   2.853   2.853   2.853   2.853
    23.88    2.853   2.853   2.853   2.853   2.853   2.853   2.853   2.853   2.853   2.853   2.853   2.853   2.853   2.853   2.853   2.853   2.853   2.853   2.853   2.853   2.853   2.853   2.853   2.853   2.853   2.853
    21.92    2.853   2.853   2.853   2.853   2.853   2.853   2.853   2.853   2.853   2.853   2.853   2.853   2.853   2.853   2.853   2.853   2.853   2.853   2.853   2.853   2.853   2.853   2.853   2.853   2.853   2.853
    19.95    2.853   2.853   2.853   2.853   2.853   2.853   2.853   2.853   2.853   2.853   2.853   2.853   2.853   2.853   2.853   2.853   2.853   2.853   2.853   2.853   2.853   2.853   2.853   2.853   2.853   2.853
    17.99    2.853   2.853   2.853   2.853   2.853   2.853   2.853   2.853   2.853   2.853   2.853   2.853   2.853   2.853   2.853   2.853   2.853   2.853   2.853   2.853   2.853   2.853   2.853   2.853   2.853   2.853
    16.03    2.853   2.853   2.853   2.853   2.853   2.853   2.853   2.853   2.853   2.853   2.853   2.853   2.853   2.853   2.853   2.853   2.853   2.853   2.853   2.853   2.853   2.853   2.853   2.853   2.853   2.853
    14.06    2.853   2.853   2.853   2.853   2.853   2.853   2.853   2.853   2.853   2.853   2.853   2.853   2.853   2.853   2.853   2.853   2.853   2.853   2.853   2.853   2.853   2.853   2.853   2.853   2.853   2.853
    12.10    2.853   2.853   2.853   2.853   2.853   2.853   2.853   2.853   2.853   2.853   2.853   2.853   2.853   2.853   2.853   2.853   2.853   2.853   2.853   2.853   2.853   2.853   2.853   2.853   2.853   2.853

   Height   Standard deviation at grid points for the w component:
    84.72    1.886   1.886   1.886   1.886   1.886   1.886   1.886   1.886   1.886   1.886   1.886   1.886   1.886   1.886   1.886   1.886   1.886   1.886   1.886   1.886   1.886   1.886   1.886   1.886   1.886   1.886
    82.75    1.886   1.886   1.886   1.886   1.886   1.886   1.886   1.886   1.886   1.886   1.886   1.886   1.886   1.886   1.886   1.886   1.886   1.886   1.886   1.886   1.886   1.886   1.886   1.886   1.886   1.886
    80.79    1.886   1.886   1.886   1.886   1.886   1.886   1.886   1.886   1.886   1.886   1.886   1.886   1.886   1.886   1.886   1.886   1.886   1.886   1.886   1.886   1.886   1.886   1.886   1.886   1.886   1.886
    78.83    1.886   1.886   1.886   1.886   1.886   1.886   1.886   1.886   1.886   1.886   1.886   1.886   1.886   1.886   1.886   1.886   1.886   1.886   1.886   1.886   1.886   1.886   1.886   1.886   1.886   1.886
    76.87    1.886   1.886   1.886   1.886   1.886   1.886   1.886   1.886   1.886   1.886   1.886   1.886   1.886   1.886   1.886   1.886   1.886   1.886   1.886   1.886   1.886   1.886   1.886   1.886   1.886   1.886
    74.90    1.886   1.886   1.886   1.886   1.886   1.886   1.886   1.886   1.886   1.886   1.886   1.886   1.886   1.886   1.886   1.886   1.886   1.886   1.886   1.886   1.886   1.886   1.886   1.886   1.886   1.886
    72.94    1.886   1.886   1.886   1.886   1.886   1.886   1.886   1.886   1.886   1.886   1.886   1.886   1.886   1.886   1.886   1.886   1.886   1.886   1.886   1.886   1.886   1.886   1.886   1.886   1.886   1.886
    70.98    1.886   1.886   1.886   1.886   1.886   1.886   1.886   1.886   1.886   1.886   1.886   1.886   1.886   1.886   1.886   1.886   1.886   1.886   1.886   1.886   1.886   1.886   1.886   1.886   1.886   1.886
    69.02    1.886   1.886   1.886   1.886   1.886   1.886   1.886   1.886   1.886   1.886   1.886   1.886   1.886   1.886   1.886   1.886   1.886   1.886   1.886   1.886   1.886   1.886   1.886   1.886   1.886   1.886
    67.05    1.886   1.886   1.886   1.886   1.886   1.886   1.886   1.886   1.886   1.886   1.886   1.886   1.886   1.886   1.886   1.886   1.886   1.886   1.886   1.886   1.886   1.886   1.886   1.886   1.886   1.886
    65.09    1.886   1.886   1.886   1.886   1.886   1.886   1.886   1.886   1.886   1.886   1.886   1.886   1.886   1.886   1.886   1.886   1.886   1.886   1.886   1.886   1.886   1.886   1.886   1.886   1.886   1.886
    63.13    1.886   1.886   1.886   1.886   1.886   1.886   1.886   1.886   1.886   1.886   1.886   1.886   1.886   1.886   1.886   1.886   1.886   1.886   1.886   1.886   1.886   1.886   1.886   1.886   1.886   1.886
    61.17    1.886   1.886   1.886   1.886   1.886   1.886   1.886   1.886   1.886   1.886   1.886   1.886   1.886   1.886   1.886   1.886   1.886   1.886   1.886   1.886   1.886   1.886   1.886   1.886   1.886   1.886
    59.20    1.886   1.886   1.886   1.886   1.886   1.886   1.886   1.886   1.886   1.886   1.886   1.886   1.886   1.886   1.886   1.886   1.886   1.886   1.886   1.886   1.886   1.886   1.886   1.886   1.886   1.886
    57.24    1.886   1.886   1.886   1.886   1.886   1.886   1.886   1.886   1.886   1.886   1.886   1.886   1.886   1.886   1.886   1.886   1.886   1.886   1.886   1.886   1.886   1.886   1.886   1.886   1.886   1.886
    55.28    1.886   1.886   1.886   1.886   1.886   1.886   1.886   1.886   1.886   1.886   1.886   1.886   1.886   1.886   1.886   1.886   1.886   1.886   1.886   1.886   1.886   1.886   1.886   1.886   1.886   1.886
    53.32    1.886   1.886   1.886   1.886   1.886   1.886   1.886   1.886   1.886   1.886   1.886   1.886   1.886   1.886   1.886   1.886   1.886   1.886   1.886   1.886   1.886   1.886   1.886   1.886   1.886   1.886
    51.35    1.886   1.886   1.886   1.886   1.886   1.886   1.886   1.886   1.886   1.886   1.886   1.886   1.886   1.886   1.886   1.886   1.886   1.886   1.886   1.886   1.886   1.886   1.886   1.886   1.886   1.886
    49.39    1.886   1.886   1.886   1.886   1.886   1.886   1.886   1.886   1.886   1.886   1.886   1.886   1.886   1.886   1.886   1.886   1.886   1.886   1.886   1.886   1.886   1.886   1.886   1.886   1.886   1.886
    47.43    1.886   1.886   1.886   1.886   1.886   1.886   1.886   1.886   1.886   1.886   1.886   1.886   1.886   1.886   1.886   1.886   1.886   1.886   1.886   1.886   1.886   1.886   1.886   1.886   1.886   1.886
    45.47    1.886   1.886   1.886   1.886   1.886   1.886   1.886   1.886   1.886   1.886   1.886   1.886   1.886   1.886   1.886   1.886   1.886   1.886   1.886   1.886   1.886   1.886   1.886   1.886   1.886   1.886
    43.50    1.886   1.886   1.886   1.886   1.886   1.886   1.886   1.886   1.886   1.886   1.886   1.886   1.886   1.886   1.886   1.886   1.886   1.886   1.886   1.886   1.886   1.886   1.886   1.886   1.886   1.886
    41.54    1.886   1.886   1.886   1.886   1.886   1.886   1.886   1.886   1.886   1.886   1.886   1.886   1.886   1.886   1.886   1.886   1.886   1.886   1.886   1.886   1.886   1.886   1.886   1.886   1.886   1.886
    39.58    1.886   1.886   1.886   1.886   1.886   1.886   1.886   1.886   1.886   1.886   1.886   1.886   1.886   1.886   1.886   1.886   1.886   1.886   1.886   1.886   1.886   1.886   1.886   1.886   1.886   1.886
    37.62    1.886   1.886   1.886   1.886   1.886   1.886   1.886   1.886   1.886   1.886   1.886   1.886   1.886   1.886   1.886   1.886   1.886   1.886   1.886   1.886   1.886   1.886   1.886   1.886   1.886   1.886
    35.65    1.886   1.886   1.886   1.886   1.886   1.886   1.886   1.886   1.886   1.886   1.886   1.886   1.886   1.886   1.886   1.886   1.886   1.886   1.886   1.886   1.886   1.886   1.886   1.886   1.886   1.886
    33.69    1.886   1.886   1.886   1.886   1.886   1.886   1.886   1.886   1.886   1.886   1.886   1.886   1.886   1.886   1.886   1.886   1.886   1.886   1.886   1.886   1.886   1.886   1.886   1.886   1.886   1.886
    31.73    1.886   1.886   1.886   1.886   1.886   1.886   1.886   1.886   1.886   1.886   1.886   1.886   1.886   1.886   1.886   1.886   1.886   1.886   1.886   1.886   1.886   1.886   1.886   1.886   1.886   1.886
    29.77    1.886   1.886   1.886   1.886   1.886   1.886   1.886   1.886   1.886   1.886   1.886   1.886   1.886   1.886   1.886   1.886   1.886   1.886   1.886   1.886   1.886   1.886   1.886   1.886   1.886   1.886
    27.80    1.886   1.886   1.886   1.886   1.886   1.886   1.886   1.886   1.886   1.886   1.886   1.886   1.886   1.886   1.886   1.886   1.886   1.886   1.886   1.886   1.886   1.886   1.886   1.886   1.886   1.886
    25.84    1.886   1.886   1.886   1.886   1.886   1.886   1.886   1.886   1.886   1.886   1.886   1.886   1.886   1.886   1.886   1.886   1.886   1.886   1.886   1.886   1.886   1.886   1.886   1.886   1.886   1.886
    23.88    1.886   1.886   1.886   1.886   1.886   1.886   1.886   1.886   1.886   1.886   1.886   1.886   1.886   1.886   1.886   1.886   1.886   1.886   1.886   1.886   1.886   1.886   1.886   1.886   1.886   1.886
    21.92    1.886   1.886   1.886   1.886   1.886   1.886   1.886   1.886   1.886   1.886   1.886   1.886   1.886   1.886   1.886   1.886   1.886   1.886   1.886   1.886   1.886   1.886   1.886   1.886   1.886   1.886
    19.95    1.886   1.886   1.886   1.886   1.886   1.886   1.886   1.886   1.886   1.886   1.886   1.886   1.886   1.886   1.886   1.886   1.886   1.886   1.886   1.886   1.886   1.886   1.886   1.886   1.886   1.886
    17.99    1.886   1.886   1.886   1.886   1.886   1.886   1.886   1.886   1.886   1.886   1.886   1.886   1.886   1.886   1.886   1.886   1.886   1.886   1.886   1.886   1.886   1.886   1.886   1.886   1.886   1.886
    16.03    1.886   1.886   1.886   1.886   1.886   1.886   1.886   1.886   1.886   1.886   1.886   1.886   1.886   1.886   1.886   1.886   1.886   1.886   1.886   1.886   1.886   1.886   1.886   1.886   1.886   1.886
    14.06    1.886   1.886   1.886   1.886   1.886   1.886   1.886   1.886   1.886   1.886   1.886   1.886   1.886   1.886   1.886   1.886   1.886   1.886   1.886   1.886   1.886   1.886   1.886   1.886   1.886   1.886
    12.10    1.886   1.886   1.886   1.886   1.886   1.886   1.886   1.886   1.886   1.886   1.886   1.886   1.886   1.886   1.886   1.886   1.886   1.886   1.886   1.886   1.886   1.886   1.886   1.886   1.886   1.886

   Mean standard deviation across all grid points:
      u component:    3.125 m/s
      v component:    2.853 m/s
      w component:    1.886 m/s


U-component (X) statistics from the interpolated hub point:

   Mean =  26.1601 m/s
   TI   =   8.4010 %


Processing complete.  12.011 CPU seconds used.
