
This summary file was generated by TurbSim (from OpenFAST-v2.5.0-3490-g24c05a74) on 20-Dec-2024 at 01:30:59.


Runtime Options:

     40071  Random seed #1
    RANLUX  Type of random number generator
         F  Output binary HH turbulence parameters?
         F  Output formatted turbulence parameters?
         F  Output AeroDyn HH files?
         T  Output AeroDyn FF files?
         F  Output BLADED FF files?
         F  Output tower data?
         F  Output HAWC FF files?
         F  Output formatted FF files?
         T  Output coherent turbulence time step file?
 0 -  NONE  IEC turbulence models scaled to exact specified standard deviation


Turbine/Model Specifications:

        38  Vertical grid-point matrix dimension
        26  Horizontal grid-point matrix dimension
     0.050  Time step [seconds]
    60.000  Analysis time [seconds]
    60.000  Usable output time [seconds]
    42.600  Hub height [m]
    63.901  Grid height [m]
   118.825  Grid width [m]
     0.000  Vertical flow angle [degrees]
     0.000  Horizontal flow angle [degrees]


Meteorological Boundary Conditions:

    IECKAI  IEC Kaimal spectral model
         1  IEC standard: IEC 61400-1 Ed. 3: 2005
         A  IEC turbulence characteristic
       NTM  IEC Normal Turbulence Model
       N/A  IEC Extreme Turbulence Model (ETM) "c" parameter [m/s]
       PL   Wind profile type
    43.000  Reference height [m]
     5.000  Reference wind speed [m/s]
       N/A  Jet height [m]
     0.200  Power law exponent
     0.030  Surface roughness length [m]


Non-IEC Meteorological Boundary Conditions:

       N/A  Site latitude [degrees]
       N/A  Gradient Richardson number
       N/A  Friction or shear velocity [m/s]
       N/A  Mixing layer depth [m]
       N/A  Mean hub u'w' Reynolds stress
       N/A  Mean hub u'v' Reynolds stress
       N/A  Mean hub v'w' Reynolds stress


Spatial Coherence Models:

       IEC  u-component coherence model
      NONE  v-component coherence model
      NONE  w-component coherence model
(   12.000, 0.497E-03)  u-component coherence parameters
                   N/A  v-component coherence parameters
                   N/A  w-component coherence parameters
       N/A  Coherence exponent


You have requested that the following file(s) be generated:

   ./turbsimfiles/DLC1_1Vinf05.0.bts (AeroDyn/TurbSim full-field wind file)


Turbulence Simulation Scaling Parameter Summary:

   Turbulence model used                            =  IEC Kaimal
   Turbulence characteristic                        =  A
   IEC turbulence type                              =  Normal Turbulence Model
   IEC standard                                     =  IEC 61400-1 Ed. 3: 2005
   Mean wind speed at hub height                    =    4.991 m/s
   Expected value of turbulence intensity at 15 m/s =   16.000%
   Characteristic value of standard deviation       =    1.495 m/s
   Turbulence scale                                 =   29.820 m
   u-component integral scale                       =  241.544 m
   Coherency scale                                  =  241.544 m
   Characteristic value of hub turbulence intensity =   29.953%
   Gradient Richardson number                       =    0.000

   Wind profile type                                =  Power law
   Power law exponent                               =    0.200
   Mean shear across rotor disk                     =    0.028 (m/s)/m
   Assumed rotor diameter                           =   63.901 m
   Surface roughness length                         =    0.030 m

   Nyquist frequency of turbulent wind field        =   10.000 Hz

   Number of time steps in the FFT                  =     1200
   Number of time steps output                      =     1200
   Number of points simulated                       =      989


Mean Flow Angles:

   Vertical   =   0.0 degrees
   Horizontal =   0.0 degrees

Mean Wind Speed Profile:

   Height    Wind Speed   Horizontal Angle  Vertical Angle  U-comp (X)   V-comp (Y)   W-comp (Z)
     (m)        (m/s)         (degrees)       (degrees)       (m/s)        (m/s)        (m/s)   
   ------    ----------   ----------------  --------------  ----------   ----------   ----------
     74.6        5.58            0.00            0.00          5.58         0.00         0.00
     72.8        5.56            0.00            0.00          5.56         0.00         0.00
     71.1        5.53            0.00            0.00          5.53         0.00         0.00
     69.4        5.50            0.00            0.00          5.50         0.00         0.00
     67.6        5.47            0.00            0.00          5.47         0.00         0.00
     65.9        5.45            0.00            0.00          5.45         0.00         0.00
     64.2        5.42            0.00            0.00          5.42         0.00         0.00
     62.5        5.39            0.00            0.00          5.39         0.00         0.00
     60.7        5.36            0.00            0.00          5.36         0.00         0.00
     59.0        5.33            0.00            0.00          5.33         0.00         0.00
     57.3        5.30            0.00            0.00          5.30         0.00         0.00
     55.6        5.26            0.00            0.00          5.26         0.00         0.00
     53.8        5.23            0.00            0.00          5.23         0.00         0.00
     52.1        5.20            0.00            0.00          5.20         0.00         0.00
     50.4        5.16            0.00            0.00          5.16         0.00         0.00
     48.6        5.12            0.00            0.00          5.12         0.00         0.00
     46.9        5.09            0.00            0.00          5.09         0.00         0.00
     45.2        5.05            0.00            0.00          5.05         0.00         0.00
     43.5        5.01            0.00            0.00          5.01         0.00         0.00
     42.6        4.99            0.00            0.00          4.99         0.00         0.00
     41.7        4.97            0.00            0.00          4.97         0.00         0.00
     40.0        4.93            0.00            0.00          4.93         0.00         0.00
     38.3        4.89            0.00            0.00          4.89         0.00         0.00
     36.6        4.84            0.00            0.00          4.84         0.00         0.00
     34.8        4.79            0.00            0.00          4.79         0.00         0.00
     33.1        4.75            0.00            0.00          4.75         0.00         0.00
     31.4        4.69            0.00            0.00          4.69         0.00         0.00
     29.6        4.64            0.00            0.00          4.64         0.00         0.00
     27.9        4.59            0.00            0.00          4.59         0.00         0.00
     26.2        4.53            0.00            0.00          4.53         0.00         0.00
     24.5        4.47            0.00            0.00          4.47         0.00         0.00
     22.7        4.40            0.00            0.00          4.40         0.00         0.00
     21.0        4.33            0.00            0.00          4.33         0.00         0.00
     19.3        4.26            0.00            0.00          4.26         0.00         0.00
     17.6        4.18            0.00            0.00          4.18         0.00         0.00
     15.8        4.09            0.00            0.00          4.09         0.00         0.00
     14.1        4.00            0.00            0.00          4.00         0.00         0.00
     12.4        3.90            0.00            0.00          3.90         0.00         0.00
     10.7        3.78            0.00            0.00          3.78         0.00         0.00


Harvested Random Seeds after Generation of the Random Numbers:

     16541025 K 1
            0 K 2


Hub-Height Simulated Turbulence Statistical Summary:

   Type of Wind        Min (m/s)   Mean (m/s)    Max (m/s)  Sigma (m/s)       TI (%)
   ----------------    ---------   ----------    ---------  -----------       ------
   Longitudinal (u)         2.91         4.99         7.66        0.927       18.583
   Lateral (v)             -2.82        -0.00         2.47        0.959       19.215
   Vertical (w)            -2.17        -0.00         1.85        0.692       13.861
   U component              2.91         4.99         7.66        0.927       18.583
   V component             -2.82        -0.00         2.47        0.959       19.215
   W component             -2.17        -0.00         1.85        0.692       13.861
   Horizontal (U&V)         2.95         5.08         7.68        0.919       18.074
   Total                    3.10         5.13         7.69        0.913       17.798

                       Min Reynolds     Mean Reynolds    Max Reynolds    Correlation
   Product             Stress (m/s)^2   Stress (m/s)^2   Stress (m/s)^2  Coefficient
   ----------------    --------------   --------------   --------------  -----------
   u'w'                     -2.975            -0.102             2.215        -0.159
   u'v'                     -4.362            -0.336             2.114        -0.378
   v'w'                     -2.310             0.147             3.243         0.221


   Friction Velocity (Ustar)  =      0.320 m/s
   Maximum Instantaneous TKE  =      4.994 (m/s)^2
   Maximum Instantaneous CTKE =      2.622 (m/s)^2


Grid Point Variance Summary:

   Y-coord  -59.41  -54.66  -49.91  -45.15  -40.40  -35.65  -30.89  -26.14  -21.39  -16.64  -11.88   -7.13   -2.38    2.38    7.13   11.88   16.64   21.39   26.14   30.89   35.65   40.40   45.15   49.91   54.66   59.41

   Height   Standard deviation at grid points for the u component:
    74.55    1.093   1.075   0.782   0.720   0.743   0.747   0.862   0.740   0.642   0.974   1.086   1.097   1.031   0.864   0.985   1.103   0.934   0.929   0.766   0.876   1.044   0.798   0.724   0.709   0.618   0.722
    72.82    0.920   1.122   1.038   0.727   0.832   0.733   0.813   0.692   0.715   0.998   1.141   1.051   1.130   0.945   0.946   1.164   0.914   0.899   0.857   0.866   0.874   0.875   0.705   0.791   0.747   0.598
    71.10    1.022   1.016   0.949   0.963   0.755   0.728   0.866   0.916   0.745   1.011   1.246   1.081   1.167   0.982   0.949   1.079   0.955   0.859   0.919   0.782   0.676   0.772   0.698   0.759   0.782   0.550
    69.37    0.855   0.918   1.078   1.092   1.039   0.743   0.718   0.948   0.801   0.882   1.155   1.331   1.052   0.991   0.975   1.152   0.995   1.022   0.929   0.792   0.713   0.731   0.639   0.799   0.955   0.751
    67.64    0.904   0.869   0.969   1.206   0.989   0.755   0.686   0.931   0.743   0.917   1.250   1.309   1.028   1.034   0.924   1.028   1.089   0.933   0.939   0.796   0.686   0.693   0.877   0.857   0.912   0.612
    65.92    0.891   0.888   1.053   1.055   1.112   0.770   0.865   0.883   0.860   1.084   1.210   1.527   1.281   1.009   0.826   1.121   1.063   1.251   1.010   0.957   0.730   0.683   0.892   0.906   0.853   0.696
    64.19    0.903   0.893   1.115   0.933   1.088   0.936   1.148   0.762   0.905   0.975   1.388   1.547   1.109   0.890   0.801   1.012   1.041   1.076   1.100   0.790   0.641   0.827   0.847   0.788   0.763   0.632
    62.46    0.881   0.804   1.010   0.838   1.259   1.173   1.067   0.818   1.035   1.213   1.358   1.581   1.121   0.918   0.863   0.958   1.009   1.009   0.923   0.953   0.778   0.810   1.014   0.819   1.061   0.851
    60.73    0.710   0.714   0.912   0.863   1.268   1.209   1.269   0.920   0.876   1.070   1.148   1.456   1.152   0.971   0.887   0.935   0.923   1.090   0.823   0.922   0.946   0.898   0.982   1.055   1.044   1.019
    59.01    0.622   0.794   1.089   1.118   1.216   1.393   1.227   0.894   0.855   0.929   1.300   1.329   1.230   0.989   1.124   0.893   0.963   0.904   0.993   1.107   1.090   0.756   1.201   1.106   1.246   0.940
    57.28    0.681   0.914   0.940   0.941   1.008   1.314   1.193   1.106   1.043   0.943   1.219   1.128   1.269   0.962   0.912   1.005   0.868   0.850   1.096   1.138   1.133   0.919   1.398   1.256   1.296   0.979
    55.55    0.852   0.823   0.946   1.057   0.982   1.267   1.277   1.403   1.179   1.064   0.991   1.149   1.151   0.982   0.941   1.183   1.082   1.017   1.111   0.930   0.938   0.973   1.340   1.391   1.220   1.220
    53.83    0.735   0.898   1.062   1.013   1.190   1.249   1.260   1.384   1.270   1.263   0.923   0.960   1.118   1.051   0.957   1.063   1.048   1.178   1.193   1.155   1.110   0.989   1.329   1.202   1.209   1.156
    52.10    0.681   0.871   0.882   1.135   1.233   1.321   1.075   1.442   1.022   1.186   1.082   0.772   1.109   1.267   0.936   0.905   0.958   1.227   1.208   1.349   1.249   0.960   1.250   1.031   1.346   1.131
    50.37    0.626   0.876   0.765   1.118   1.147   1.334   1.039   1.483   1.106   0.984   1.046   0.802   0.992   1.378   0.989   1.002   0.827   1.061   1.155   1.297   1.132   1.151   1.335   1.187   1.288   1.219
    48.65    0.794   0.940   0.827   0.990   1.154   1.263   1.163   1.552   1.246   0.992   1.087   0.873   1.182   1.297   0.909   1.044   0.933   1.161   1.039   1.234   1.363   1.122   1.320   1.222   1.135   1.156
    46.92    0.756   0.790   0.804   0.793   1.223   1.126   1.099   1.703   1.382   0.842   1.022   0.863   1.132   1.311   1.002   0.950   0.975   1.038   1.235   1.276   1.269   1.412   1.260   1.182   1.232   0.982
    45.19    0.943   0.838   0.859   0.974   1.047   1.200   1.234   1.636   1.601   0.969   0.973   0.810   1.138   1.161   0.928   0.883   0.970   1.273   1.026   1.352   1.186   1.229   1.324   1.026   1.087   0.922
    43.46    0.903   1.033   0.690   0.889   0.992   0.985   1.384   1.504   1.484   1.158   0.882   1.002   1.082   0.942   0.909   0.933   0.946   1.189   1.093   1.141   1.220   1.360   1.170   1.140   1.014   0.793
    41.74    0.721   0.893   0.817   0.838   1.032   0.885   1.315   1.353   1.443   1.010   1.081   1.170   0.867   0.924   0.816   0.837   0.994   1.072   0.920   1.082   1.237   1.217   1.187   1.319   1.040   0.819
    40.01    0.619   0.671   0.705   0.862   1.159   0.971   1.185   1.193   1.317   1.275   1.316   1.044   0.846   0.786   0.962   0.940   0.825   0.963   1.051   1.078   1.013   1.080   1.291   1.251   1.004   1.084
    38.28    0.718   0.568   0.852   0.857   1.080   1.117   1.068   1.255   1.389   1.375   1.302   1.136   1.029   1.060   0.786   0.910   0.826   0.790   0.958   1.181   1.264   1.318   1.431   1.269   1.141   1.001
    36.56    0.605   0.672   0.792   0.878   0.999   0.977   1.211   1.521   1.336   1.178   1.266   1.399   0.879   0.925   0.801   0.776   0.672   0.695   0.956   1.003   1.173   1.535   1.258   1.535   1.340   1.049
    34.83    0.820   0.667   0.751   0.647   0.876   1.057   1.293   1.470   0.994   1.309   1.320   1.363   1.046   1.036   0.883   0.753   0.928   0.731   0.839   1.033   1.180   1.552   1.400   1.625   1.301   1.216
    33.10    0.876   0.671   0.742   0.771   1.128   0.919   1.074   1.298   1.092   1.185   1.082   1.150   0.964   0.929   0.876   0.705   0.839   0.877   0.724   1.000   1.312   1.613   1.562   1.569   1.329   1.172
    31.37    0.780   0.671   0.837   0.873   1.165   1.075   0.898   1.166   1.361   0.930   1.127   0.997   0.762   0.863   0.798   0.822   0.772   0.818   0.830   1.002   1.284   1.458   1.572   1.506   1.163   1.116
    29.65    0.676   0.828   0.829   0.879   0.917   0.941   0.950   1.290   1.371   1.117   1.050   0.852   0.831   0.816   1.052   0.947   0.838   0.837   0.768   0.934   1.209   1.351   1.441   1.453   1.059   0.967
    27.92    0.597   0.798   0.836   0.850   0.960   1.035   1.065   1.307   1.348   1.012   0.807   0.927   0.779   1.018   1.084   0.896   0.847   0.963   0.705   1.013   1.118   1.334   1.330   1.376   1.102   1.055
    26.19    0.691   0.879   0.849   0.811   1.174   0.819   1.132   1.291   1.153   0.916   0.910   0.750   0.894   1.021   1.022   0.938   0.956   1.016   0.715   0.952   1.261   1.126   1.535   1.614   1.244   0.865
    24.47    0.701   0.971   0.800   0.760   1.101   0.934   1.025   1.138   1.158   1.003   0.788   0.748   0.790   0.906   1.100   0.950   1.034   0.959   0.857   0.823   1.089   1.267   1.421   1.561   1.301   1.039
    22.74    0.748   0.878   0.782   0.883   1.005   1.037   1.201   0.936   1.134   1.107   1.087   0.881   0.806   0.903   1.097   1.078   0.924   0.930   0.836   0.825   1.160   1.624   1.490   1.457   1.229   0.888
    21.01    0.840   0.729   0.892   0.749   0.933   0.825   1.092   1.018   1.130   0.910   1.068   1.007   0.861   1.032   1.082   1.076   1.026   0.865   0.904   0.772   1.135   1.463   1.397   1.239   1.138   0.650
    19.29    0.825   0.667   1.029   0.886   0.812   0.886   1.007   1.120   1.133   0.996   1.190   1.128   0.917   1.200   1.190   1.214   0.891   1.104   1.063   1.126   1.116   1.351   1.283   1.148   1.043   0.803
    17.56    0.867   0.881   1.133   1.014   0.707   0.889   0.940   1.044   1.079   1.163   1.222   0.950   0.971   1.092   1.085   1.387   1.023   0.965   0.897   1.070   1.212   1.143   1.197   1.021   0.922   0.879
    15.83    0.927   0.957   1.106   1.120   0.816   0.754   0.760   0.968   0.907   0.929   1.064   1.101   0.782   0.944   1.336   1.426   1.350   0.986   0.976   1.013   1.108   1.161   0.981   0.813   0.762   0.642
    14.10    0.959   1.010   1.010   0.891   0.876   0.825   0.650   0.904   0.992   0.808   0.991   0.891   0.930   0.907   1.168   1.399   1.275   1.226   0.956   1.084   1.203   1.117   0.776   0.952   0.954   0.922
    12.38    1.071   0.960   0.813   0.731   0.821   0.920   0.801   0.959   1.036   0.919   0.910   0.898   0.746   1.114   1.189   1.460   1.466   1.418   0.927   0.902   1.047   0.991   0.930   0.863   0.840   1.066
    10.65    0.953   0.863   0.915   0.754   0.837   0.729   0.966   0.841   1.070   1.197   0.767   0.934   0.908   1.044   1.177   1.359   1.545   1.185   1.114   1.042   1.153   1.185   0.934   0.777   1.019   1.023

   Height   Standard deviation at grid points for the v component:
    74.55    0.959   0.959   0.959   0.959   0.959   0.959   0.959   0.959   0.959   0.959   0.959   0.959   0.959   0.959   0.959   0.959   0.959   0.959   0.959   0.959   0.959   0.959   0.959   0.959   0.959   0.959
    72.82    0.959   0.959   0.959   0.959   0.959   0.959   0.959   0.959   0.959   0.959   0.959   0.959   0.959   0.959   0.959   0.959   0.959   0.959   0.959   0.959   0.959   0.959   0.959   0.959   0.959   0.959
    71.10    0.959   0.959   0.959   0.959   0.959   0.959   0.959   0.959   0.959   0.959   0.959   0.959   0.959   0.959   0.959   0.959   0.959   0.959   0.959   0.959   0.959   0.959   0.959   0.959   0.959   0.959
    69.37    0.959   0.959   0.959   0.959   0.959   0.959   0.959   0.959   0.959   0.959   0.959   0.959   0.959   0.959   0.959   0.959   0.959   0.959   0.959   0.959   0.959   0.959   0.959   0.959   0.959   0.959
    67.64    0.959   0.959   0.959   0.959   0.959   0.959   0.959   0.959   0.959   0.959   0.959   0.959   0.959   0.959   0.959   0.959   0.959   0.959   0.959   0.959   0.959   0.959   0.959   0.959   0.959   0.959
    65.92    0.959   0.959   0.959   0.959   0.959   0.959   0.959   0.959   0.959   0.959   0.959   0.959   0.959   0.959   0.959   0.959   0.959   0.959   0.959   0.959   0.959   0.959   0.959   0.959   0.959   0.959
    64.19    0.959   0.959   0.959   0.959   0.959   0.959   0.959   0.959   0.959   0.959   0.959   0.959   0.959   0.959   0.959   0.959   0.959   0.959   0.959   0.959   0.959   0.959   0.959   0.959   0.959   0.959
    62.46    0.959   0.959   0.959   0.959   0.959   0.959   0.959   0.959   0.959   0.959   0.959   0.959   0.959   0.959   0.959   0.959   0.959   0.959   0.959   0.959   0.959   0.959   0.959   0.959   0.959   0.959
    60.73    0.959   0.959   0.959   0.959   0.959   0.959   0.959   0.959   0.959   0.959   0.959   0.959   0.959   0.959   0.959   0.959   0.959   0.959   0.959   0.959   0.959   0.959   0.959   0.959   0.959   0.959
    59.01    0.959   0.959   0.959   0.959   0.959   0.959   0.959   0.959   0.959   0.959   0.959   0.959   0.959   0.959   0.959   0.959   0.959   0.959   0.959   0.959   0.959   0.959   0.959   0.959   0.959   0.959
    57.28    0.959   0.959   0.959   0.959   0.959   0.959   0.959   0.959   0.959   0.959   0.959   0.959   0.959   0.959   0.959   0.959   0.959   0.959   0.959   0.959   0.959   0.959   0.959   0.959   0.959   0.959
    55.55    0.959   0.959   0.959   0.959   0.959   0.959   0.959   0.959   0.959   0.959   0.959   0.959   0.959   0.959   0.959   0.959   0.959   0.959   0.959   0.959   0.959   0.959   0.959   0.959   0.959   0.959
    53.83    0.959   0.959   0.959   0.959   0.959   0.959   0.959   0.959   0.959   0.959   0.959   0.959   0.959   0.959   0.959   0.959   0.959   0.959   0.959   0.959   0.959   0.959   0.959   0.959   0.959   0.959
    52.10    0.959   0.959   0.959   0.959   0.959   0.959   0.959   0.959   0.959   0.959   0.959   0.959   0.959   0.959   0.959   0.959   0.959   0.959   0.959   0.959   0.959   0.959   0.959   0.959   0.959   0.959
    50.37    0.959   0.959   0.959   0.959   0.959   0.959   0.959   0.959   0.959   0.959   0.959   0.959   0.959   0.959   0.959   0.959   0.959   0.959   0.959   0.959   0.959   0.959   0.959   0.959   0.959   0.959
    48.65    0.959   0.959   0.959   0.959   0.959   0.959   0.959   0.959   0.959   0.959   0.959   0.959   0.959   0.959   0.959   0.959   0.959   0.959   0.959   0.959   0.959   0.959   0.959   0.959   0.959   0.959
    46.92    0.959   0.959   0.959   0.959   0.959   0.959   0.959   0.959   0.959   0.959   0.959   0.959   0.959   0.959   0.959   0.959   0.959   0.959   0.959   0.959   0.959   0.959   0.959   0.959   0.959   0.959
    45.19    0.959   0.959   0.959   0.959   0.959   0.959   0.959   0.959   0.959   0.959   0.959   0.959   0.959   0.959   0.959   0.959   0.959   0.959   0.959   0.959   0.959   0.959   0.959   0.959   0.959   0.959
    43.46    0.959   0.959   0.959   0.959   0.959   0.959   0.959   0.959   0.959   0.959   0.959   0.959   0.959   0.959   0.959   0.959   0.959   0.959   0.959   0.959   0.959   0.959   0.959   0.959   0.959   0.959
    41.74    0.959   0.959   0.959   0.959   0.959   0.959   0.959   0.959   0.959   0.959   0.959   0.959   0.959   0.959   0.959   0.959   0.959   0.959   0.959   0.959   0.959   0.959   0.959   0.959   0.959   0.959
    40.01    0.959   0.959   0.959   0.959   0.959   0.959   0.959   0.959   0.959   0.959   0.959   0.959   0.959   0.959   0.959   0.959   0.959   0.959   0.959   0.959   0.959   0.959   0.959   0.959   0.959   0.959
    38.28    0.959   0.959   0.959   0.959   0.959   0.959   0.959   0.959   0.959   0.959   0.959   0.959   0.959   0.959   0.959   0.959   0.959   0.959   0.959   0.959   0.959   0.959   0.959   0.959   0.959   0.959
    36.56    0.959   0.959   0.959   0.959   0.959   0.959   0.959   0.959   0.959   0.959   0.959   0.959   0.959   0.959   0.959   0.959   0.959   0.959   0.959   0.959   0.959   0.959   0.959   0.959   0.959   0.959
    34.83    0.959   0.959   0.959   0.959   0.959   0.959   0.959   0.959   0.959   0.959   0.959   0.959   0.959   0.959   0.959   0.959   0.959   0.959   0.959   0.959   0.959   0.959   0.959   0.959   0.959   0.959
    33.10    0.959   0.959   0.959   0.959   0.959   0.959   0.959   0.959   0.959   0.959   0.959   0.959   0.959   0.959   0.959   0.959   0.959   0.959   0.959   0.959   0.959   0.959   0.959   0.959   0.959   0.959
    31.37    0.959   0.959   0.959   0.959   0.959   0.959   0.959   0.959   0.959   0.959   0.959   0.959   0.959   0.959   0.959   0.959   0.959   0.959   0.959   0.959   0.959   0.959   0.959   0.959   0.959   0.959
    29.65    0.959   0.959   0.959   0.959   0.959   0.959   0.959   0.959   0.959   0.959   0.959   0.959   0.959   0.959   0.959   0.959   0.959   0.959   0.959   0.959   0.959   0.959   0.959   0.959   0.959   0.959
    27.92    0.959   0.959   0.959   0.959   0.959   0.959   0.959   0.959   0.959   0.959   0.959   0.959   0.959   0.959   0.959   0.959   0.959   0.959   0.959   0.959   0.959   0.959   0.959   0.959   0.959   0.959
    26.19    0.959   0.959   0.959   0.959   0.959   0.959   0.959   0.959   0.959   0.959   0.959   0.959   0.959   0.959   0.959   0.959   0.959   0.959   0.959   0.959   0.959   0.959   0.959   0.959   0.959   0.959
    24.47    0.959   0.959   0.959   0.959   0.959   0.959   0.959   0.959   0.959   0.959   0.959   0.959   0.959   0.959   0.959   0.959   0.959   0.959   0.959   0.959   0.959   0.959   0.959   0.959   0.959   0.959
    22.74    0.959   0.959   0.959   0.959   0.959   0.959   0.959   0.959   0.959   0.959   0.959   0.959   0.959   0.959   0.959   0.959   0.959   0.959   0.959   0.959   0.959   0.959   0.959   0.959   0.959   0.959
    21.01    0.959   0.959   0.959   0.959   0.959   0.959   0.959   0.959   0.959   0.959   0.959   0.959   0.959   0.959   0.959   0.959   0.959   0.959   0.959   0.959   0.959   0.959   0.959   0.959   0.959   0.959
    19.29    0.959   0.959   0.959   0.959   0.959   0.959   0.959   0.959   0.959   0.959   0.959   0.959   0.959   0.959   0.959   0.959   0.959   0.959   0.959   0.959   0.959   0.959   0.959   0.959   0.959   0.959
    17.56    0.959   0.959   0.959   0.959   0.959   0.959   0.959   0.959   0.959   0.959   0.959   0.959   0.959   0.959   0.959   0.959   0.959   0.959   0.959   0.959   0.959   0.959   0.959   0.959   0.959   0.959
    15.83    0.959   0.959   0.959   0.959   0.959   0.959   0.959   0.959   0.959   0.959   0.959   0.959   0.959   0.959   0.959   0.959   0.959   0.959   0.959   0.959   0.959   0.959   0.959   0.959   0.959   0.959
    14.10    0.959   0.959   0.959   0.959   0.959   0.959   0.959   0.959   0.959   0.959   0.959   0.959   0.959   0.959   0.959   0.959   0.959   0.959   0.959   0.959   0.959   0.959   0.959   0.959   0.959   0.959
    12.38    0.959   0.959   0.959   0.959   0.959   0.959   0.959   0.959   0.959   0.959   0.959   0.959   0.959   0.959   0.959   0.959   0.959   0.959   0.959   0.959   0.959   0.959   0.959   0.959   0.959   0.959
    10.65    0.959   0.959   0.959   0.959   0.959   0.959   0.959   0.959   0.959   0.959   0.959   0.959   0.959   0.959   0.959   0.959   0.959   0.959   0.959   0.959   0.959   0.959   0.959   0.959   0.959   0.959

   Height   Standard deviation at grid points for the w component:
    74.55    0.692   0.692   0.692   0.692   0.692   0.692   0.692   0.692   0.692   0.692   0.692   0.692   0.692   0.692   0.692   0.692   0.692   0.692   0.692   0.692   0.692   0.692   0.692   0.692   0.692   0.692
    72.82    0.692   0.692   0.692   0.692   0.692   0.692   0.692   0.692   0.692   0.692   0.692   0.692   0.692   0.692   0.692   0.692   0.692   0.692   0.692   0.692   0.692   0.692   0.692   0.692   0.692   0.692
    71.10    0.692   0.692   0.692   0.692   0.692   0.692   0.692   0.692   0.692   0.692   0.692   0.692   0.692   0.692   0.692   0.692   0.692   0.692   0.692   0.692   0.692   0.692   0.692   0.692   0.692   0.692
    69.37    0.692   0.692   0.692   0.692   0.692   0.692   0.692   0.692   0.692   0.692   0.692   0.692   0.692   0.692   0.692   0.692   0.692   0.692   0.692   0.692   0.692   0.692   0.692   0.692   0.692   0.692
    67.64    0.692   0.692   0.692   0.692   0.692   0.692   0.692   0.692   0.692   0.692   0.692   0.692   0.692   0.692   0.692   0.692   0.692   0.692   0.692   0.692   0.692   0.692   0.692   0.692   0.692   0.692
    65.92    0.692   0.692   0.692   0.692   0.692   0.692   0.692   0.692   0.692   0.692   0.692   0.692   0.692   0.692   0.692   0.692   0.692   0.692   0.692   0.692   0.692   0.692   0.692   0.692   0.692   0.692
    64.19    0.692   0.692   0.692   0.692   0.692   0.692   0.692   0.692   0.692   0.692   0.692   0.692   0.692   0.692   0.692   0.692   0.692   0.692   0.692   0.692   0.692   0.692   0.692   0.692   0.692   0.692
    62.46    0.692   0.692   0.692   0.692   0.692   0.692   0.692   0.692   0.692   0.692   0.692   0.692   0.692   0.692   0.692   0.692   0.692   0.692   0.692   0.692   0.692   0.692   0.692   0.692   0.692   0.692
    60.73    0.692   0.692   0.692   0.692   0.692   0.692   0.692   0.692   0.692   0.692   0.692   0.692   0.692   0.692   0.692   0.692   0.692   0.692   0.692   0.692   0.692   0.692   0.692   0.692   0.692   0.692
    59.01    0.692   0.692   0.692   0.692   0.692   0.692   0.692   0.692   0.692   0.692   0.692   0.692   0.692   0.692   0.692   0.692   0.692   0.692   0.692   0.692   0.692   0.692   0.692   0.692   0.692   0.692
    57.28    0.692   0.692   0.692   0.692   0.692   0.692   0.692   0.692   0.692   0.692   0.692   0.692   0.692   0.692   0.692   0.692   0.692   0.692   0.692   0.692   0.692   0.692   0.692   0.692   0.692   0.692
    55.55    0.692   0.692   0.692   0.692   0.692   0.692   0.692   0.692   0.692   0.692   0.692   0.692   0.692   0.692   0.692   0.692   0.692   0.692   0.692   0.692   0.692   0.692   0.692   0.692   0.692   0.692
    53.83    0.692   0.692   0.692   0.692   0.692   0.692   0.692   0.692   0.692   0.692   0.692   0.692   0.692   0.692   0.692   0.692   0.692   0.692   0.692   0.692   0.692   0.692   0.692   0.692   0.692   0.692
    52.10    0.692   0.692   0.692   0.692   0.692   0.692   0.692   0.692   0.692   0.692   0.692   0.692   0.692   0.692   0.692   0.692   0.692   0.692   0.692   0.692   0.692   0.692   0.692   0.692   0.692   0.692
    50.37    0.692   0.692   0.692   0.692   0.692   0.692   0.692   0.692   0.692   0.692   0.692   0.692   0.692   0.692   0.692   0.692   0.692   0.692   0.692   0.692   0.692   0.692   0.692   0.692   0.692   0.692
    48.65    0.692   0.692   0.692   0.692   0.692   0.692   0.692   0.692   0.692   0.692   0.692   0.692   0.692   0.692   0.692   0.692   0.692   0.692   0.692   0.692   0.692   0.692   0.692   0.692   0.692   0.692
    46.92    0.692   0.692   0.692   0.692   0.692   0.692   0.692   0.692   0.692   0.692   0.692   0.692   0.692   0.692   0.692   0.692   0.692   0.692   0.692   0.692   0.692   0.692   0.692   0.692   0.692   0.692
    45.19    0.692   0.692   0.692   0.692   0.692   0.692   0.692   0.692   0.692   0.692   0.692   0.692   0.692   0.692   0.692   0.692   0.692   0.692   0.692   0.692   0.692   0.692   0.692   0.692   0.692   0.692
    43.46    0.692   0.692   0.692   0.692   0.692   0.692   0.692   0.692   0.692   0.692   0.692   0.692   0.692   0.692   0.692   0.692   0.692   0.692   0.692   0.692   0.692   0.692   0.692   0.692   0.692   0.692
    41.74    0.692   0.692   0.692   0.692   0.692   0.692   0.692   0.692   0.692   0.692   0.692   0.692   0.692   0.692   0.692   0.692   0.692   0.692   0.692   0.692   0.692   0.692   0.692   0.692   0.692   0.692
    40.01    0.692   0.692   0.692   0.692   0.692   0.692   0.692   0.692   0.692   0.692   0.692   0.692   0.692   0.692   0.692   0.692   0.692   0.692   0.692   0.692   0.692   0.692   0.692   0.692   0.692   0.692
    38.28    0.692   0.692   0.692   0.692   0.692   0.692   0.692   0.692   0.692   0.692   0.692   0.692   0.692   0.692   0.692   0.692   0.692   0.692   0.692   0.692   0.692   0.692   0.692   0.692   0.692   0.692
    36.56    0.692   0.692   0.692   0.692   0.692   0.692   0.692   0.692   0.692   0.692   0.692   0.692   0.692   0.692   0.692   0.692   0.692   0.692   0.692   0.692   0.692   0.692   0.692   0.692   0.692   0.692
    34.83    0.692   0.692   0.692   0.692   0.692   0.692   0.692   0.692   0.692   0.692   0.692   0.692   0.692   0.692   0.692   0.692   0.692   0.692   0.692   0.692   0.692   0.692   0.692   0.692   0.692   0.692
    33.10    0.692   0.692   0.692   0.692   0.692   0.692   0.692   0.692   0.692   0.692   0.692   0.692   0.692   0.692   0.692   0.692   0.692   0.692   0.692   0.692   0.692   0.692   0.692   0.692   0.692   0.692
    31.37    0.692   0.692   0.692   0.692   0.692   0.692   0.692   0.692   0.692   0.692   0.692   0.692   0.692   0.692   0.692   0.692   0.692   0.692   0.692   0.692   0.692   0.692   0.692   0.692   0.692   0.692
    29.65    0.692   0.692   0.692   0.692   0.692   0.692   0.692   0.692   0.692   0.692   0.692   0.692   0.692   0.692   0.692   0.692   0.692   0.692   0.692   0.692   0.692   0.692   0.692   0.692   0.692   0.692
    27.92    0.692   0.692   0.692   0.692   0.692   0.692   0.692   0.692   0.692   0.692   0.692   0.692   0.692   0.692   0.692   0.692   0.692   0.692   0.692   0.692   0.692   0.692   0.692   0.692   0.692   0.692
    26.19    0.692   0.692   0.692   0.692   0.692   0.692   0.692   0.692   0.692   0.692   0.692   0.692   0.692   0.692   0.692   0.692   0.692   0.692   0.692   0.692   0.692   0.692   0.692   0.692   0.692   0.692
    24.47    0.692   0.692   0.692   0.692   0.692   0.692   0.692   0.692   0.692   0.692   0.692   0.692   0.692   0.692   0.692   0.692   0.692   0.692   0.692   0.692   0.692   0.692   0.692   0.692   0.692   0.692
    22.74    0.692   0.692   0.692   0.692   0.692   0.692   0.692   0.692   0.692   0.692   0.692   0.692   0.692   0.692   0.692   0.692   0.692   0.692   0.692   0.692   0.692   0.692   0.692   0.692   0.692   0.692
    21.01    0.692   0.692   0.692   0.692   0.692   0.692   0.692   0.692   0.692   0.692   0.692   0.692   0.692   0.692   0.692   0.692   0.692   0.692   0.692   0.692   0.692   0.692   0.692   0.692   0.692   0.692
    19.29    0.692   0.692   0.692   0.692   0.692   0.692   0.692   0.692   0.692   0.692   0.692   0.692   0.692   0.692   0.692   0.692   0.692   0.692   0.692   0.692   0.692   0.692   0.692   0.692   0.692   0.692
    17.56    0.692   0.692   0.692   0.692   0.692   0.692   0.692   0.692   0.692   0.692   0.692   0.692   0.692   0.692   0.692   0.692   0.692   0.692   0.692   0.692   0.692   0.692   0.692   0.692   0.692   0.692
    15.83    0.692   0.692   0.692   0.692   0.692   0.692   0.692   0.692   0.692   0.692   0.692   0.692   0.692   0.692   0.692   0.692   0.692   0.692   0.692   0.692   0.692   0.692   0.692   0.692   0.692   0.692
    14.10    0.692   0.692   0.692   0.692   0.692   0.692   0.692   0.692   0.692   0.692   0.692   0.692   0.692   0.692   0.692   0.692   0.692   0.692   0.692   0.692   0.692   0.692   0.692   0.692   0.692   0.692
    12.38    0.692   0.692   0.692   0.692   0.692   0.692   0.692   0.692   0.692   0.692   0.692   0.692   0.692   0.692   0.692   0.692   0.692   0.692   0.692   0.692   0.692   0.692   0.692   0.692   0.692   0.692
    10.65    0.692   0.692   0.692   0.692   0.692   0.692   0.692   0.692   0.692   0.692   0.692   0.692   0.692   0.692   0.692   0.692   0.692   0.692   0.692   0.692   0.692   0.692   0.692   0.692   0.692   0.692

   Mean standard deviation across all grid points:
      u component:    1.021 m/s
      v component:    0.959 m/s
      w component:    0.692 m/s


U-component (X) statistics from the interpolated hub point:

   Mean =   4.9905 m/s
   TI   =  16.6024 %


Processing complete.  23.086 CPU seconds used.
