
This summary file was generated by TurbSim (from OpenFAST-v2.5.0-3490-g24c05a74) on 03-Dec-2024 at 21:55:24.


Runtime Options:

     40071  Random seed #1
    RANLUX  Type of random number generator
         F  Output binary HH turbulence parameters?
         F  Output formatted turbulence parameters?
         F  Output AeroDyn HH files?
         T  Output AeroDyn FF files?
         F  Output BLADED FF files?
         F  Output tower data?
         F  Output HAWC FF files?
         F  Output formatted FF files?
         T  Output coherent turbulence time step file?
 0 -  NONE  IEC turbulence models scaled to exact specified standard deviation


Turbine/Model Specifications:

        38  Vertical grid-point matrix dimension
        26  Horizontal grid-point matrix dimension
     0.050  Time step [seconds]
   600.000  Analysis time [seconds]
   600.000  Usable output time [seconds]
    42.600  Hub height [m]
    63.901  Grid height [m]
   118.825  Grid width [m]
     0.000  Vertical flow angle [degrees]
     0.000  Horizontal flow angle [degrees]


Meteorological Boundary Conditions:

    IECKAI  IEC Kaimal spectral model
         1  IEC standard: IEC 61400-1 Ed. 3: 2005
         A  IEC turbulence characteristic
       NTM  IEC Normal Turbulence Model
       N/A  IEC Extreme Turbulence Model (ETM) "c" parameter [m/s]
       PL   Wind profile type
    43.000  Reference height [m]
    10.000  Reference wind speed [m/s]
       N/A  Jet height [m]
     0.200  Power law exponent
     0.030  Surface roughness length [m]


Non-IEC Meteorological Boundary Conditions:

       N/A  Site latitude [degrees]
       N/A  Gradient Richardson number
       N/A  Friction or shear velocity [m/s]
       N/A  Mixing layer depth [m]
       N/A  Mean hub u'w' Reynolds stress
       N/A  Mean hub u'v' Reynolds stress
       N/A  Mean hub v'w' Reynolds stress


Spatial Coherence Models:

       IEC  u-component coherence model
      NONE  v-component coherence model
      NONE  w-component coherence model
(   12.000, 0.497E-03)  u-component coherence parameters
                   N/A  v-component coherence parameters
                   N/A  w-component coherence parameters
       N/A  Coherence exponent


You have requested that the following file(s) be generated:

   ./turbsimfiles/DLC1_1Vinf10.0.bts (AeroDyn/TurbSim full-field wind file)


Turbulence Simulation Scaling Parameter Summary:

   Turbulence model used                            =  IEC Kaimal
   Turbulence characteristic                        =  A
   IEC turbulence type                              =  Normal Turbulence Model
   IEC standard                                     =  IEC 61400-1 Ed. 3: 2005
   Mean wind speed at hub height                    =    9.981 m/s
   Expected value of turbulence intensity at 15 m/s =   16.000%
   Characteristic value of standard deviation       =    2.094 m/s
   Turbulence scale                                 =   29.820 m
   u-component integral scale                       =  241.544 m
   Coherency scale                                  =  241.544 m
   Characteristic value of hub turbulence intensity =   20.977%
   Gradient Richardson number                       =    0.000

   Wind profile type                                =  Power law
   Power law exponent                               =    0.200
   Mean shear across rotor disk                     =    0.056 (m/s)/m
   Assumed rotor diameter                           =   63.901 m
   Surface roughness length                         =    0.030 m

   Nyquist frequency of turbulent wind field        =   10.000 Hz

   Number of time steps in the FFT                  =    12000
   Number of time steps output                      =    12000
   Number of points simulated                       =      989


Mean Flow Angles:

   Vertical   =   0.0 degrees
   Horizontal =   0.0 degrees

Mean Wind Speed Profile:

   Height    Wind Speed   Horizontal Angle  Vertical Angle  U-comp (X)   V-comp (Y)   W-comp (Z)
     (m)        (m/s)         (degrees)       (degrees)       (m/s)        (m/s)        (m/s)   
   ------    ----------   ----------------  --------------  ----------   ----------   ----------
     74.6       11.16            0.00            0.00         11.16         0.00         0.00
     72.8       11.11            0.00            0.00         11.11         0.00         0.00
     71.1       11.06            0.00            0.00         11.06         0.00         0.00
     69.4       11.00            0.00            0.00         11.00         0.00         0.00
     67.6       10.95            0.00            0.00         10.95         0.00         0.00
     65.9       10.89            0.00            0.00         10.89         0.00         0.00
     64.2       10.83            0.00            0.00         10.83         0.00         0.00
     62.5       10.78            0.00            0.00         10.78         0.00         0.00
     60.7       10.72            0.00            0.00         10.72         0.00         0.00
     59.0       10.65            0.00            0.00         10.65         0.00         0.00
     57.3       10.59            0.00            0.00         10.59         0.00         0.00
     55.6       10.53            0.00            0.00         10.53         0.00         0.00
     53.8       10.46            0.00            0.00         10.46         0.00         0.00
     52.1       10.39            0.00            0.00         10.39         0.00         0.00
     50.4       10.32            0.00            0.00         10.32         0.00         0.00
     48.6       10.25            0.00            0.00         10.25         0.00         0.00
     46.9       10.18            0.00            0.00         10.18         0.00         0.00
     45.2       10.10            0.00            0.00         10.10         0.00         0.00
     43.5       10.02            0.00            0.00         10.02         0.00         0.00
     42.6        9.98            0.00            0.00          9.98         0.00         0.00
     41.7        9.94            0.00            0.00          9.94         0.00         0.00
     40.0        9.86            0.00            0.00          9.86         0.00         0.00
     38.3        9.77            0.00            0.00          9.77         0.00         0.00
     36.6        9.68            0.00            0.00          9.68         0.00         0.00
     34.8        9.59            0.00            0.00          9.59         0.00         0.00
     33.1        9.49            0.00            0.00          9.49         0.00         0.00
     31.4        9.39            0.00            0.00          9.39         0.00         0.00
     29.6        9.28            0.00            0.00          9.28         0.00         0.00
     27.9        9.17            0.00            0.00          9.17         0.00         0.00
     26.2        9.06            0.00            0.00          9.06         0.00         0.00
     24.5        8.93            0.00            0.00          8.93         0.00         0.00
     22.7        8.80            0.00            0.00          8.80         0.00         0.00
     21.0        8.67            0.00            0.00          8.67         0.00         0.00
     19.3        8.52            0.00            0.00          8.52         0.00         0.00
     17.6        8.36            0.00            0.00          8.36         0.00         0.00
     15.8        8.19            0.00            0.00          8.19         0.00         0.00
     14.1        8.00            0.00            0.00          8.00         0.00         0.00
     12.4        7.80            0.00            0.00          7.80         0.00         0.00
     10.7        7.56            0.00            0.00          7.56         0.00         0.00


Harvested Random Seeds after Generation of the Random Numbers:

    165410250 K 1
            0 K 2


Hub-Height Simulated Turbulence Statistical Summary:

   Type of Wind        Min (m/s)   Mean (m/s)    Max (m/s)  Sigma (m/s)       TI (%)
   ----------------    ---------   ----------    ---------  -----------       ------
   Longitudinal (u)         4.91         9.98        19.10        2.229       22.335
   Lateral (v)             -6.08        -0.00         5.90        1.639       16.421
   Vertical (w)            -3.35         0.00         3.99        1.022       10.235
   U component              4.91         9.98        19.10        2.229       22.335
   V component             -6.08        -0.00         5.90        1.639       16.421
   W component             -3.35         0.00         3.99        1.022       10.235
   Horizontal (U&V)         5.10        10.12        19.10        2.204       21.782
   Total                    5.18        10.17        19.11        2.192       21.548

                       Min Reynolds     Mean Reynolds    Max Reynolds    Correlation
   Product             Stress (m/s)^2   Stress (m/s)^2   Stress (m/s)^2  Coefficient
   ----------------    --------------   --------------   --------------  -----------
   u'w'                    -14.739            -0.001            13.243        -0.000
   u'v'                    -30.672            -0.245            21.094        -0.067
   v'w'                    -10.958            -0.055             9.992        -0.033


   Friction Velocity (Ustar)  =      0.033 m/s
   Maximum Instantaneous TKE  =     41.646 (m/s)^2
   Maximum Instantaneous CTKE =     15.385 (m/s)^2


Grid Point Variance Summary:

   Y-coord  -59.41  -54.66  -49.91  -45.15  -40.40  -35.65  -30.89  -26.14  -21.39  -16.64  -11.88   -7.13   -2.38    2.38    7.13   11.88   16.64   21.39   26.14   30.89   35.65   40.40   45.15   49.91   54.66   59.41

   Height   Standard deviation at grid points for the u component:
    74.55    1.881   1.975   2.018   1.950   1.943   1.974   1.860   1.851   1.970   1.961   1.954   1.925   1.833   2.053   1.940   1.993   1.970   1.914   2.010   2.026   2.095   2.097   2.054   1.988   2.108   2.004
    72.82    1.830   1.953   1.929   1.929   1.902   1.980   1.893   1.906   1.926   1.939   1.932   2.017   1.903   2.026   1.983   2.008   1.948   1.914   2.041   1.973   2.058   2.021   1.965   1.939   2.117   2.029
    71.10    1.915   1.964   1.949   2.002   1.929   1.899   1.903   1.904   2.047   1.917   2.008   2.003   2.007   2.114   2.071   1.951   2.000   1.907   1.928   1.873   2.017   1.951   1.912   2.040   2.092   2.212
    69.37    1.916   1.870   1.921   1.919   1.935   1.852   1.766   1.868   1.987   1.979   2.044   2.049   2.031   2.085   2.022   1.890   2.013   1.888   1.946   1.872   1.895   1.967   1.924   1.971   2.109   2.272
    67.64    1.830   1.892   1.847   1.981   1.879   1.810   1.777   1.851   1.939   1.984   2.060   2.002   2.159   2.159   2.069   1.914   1.941   1.890   1.887   1.877   1.915   1.929   1.897   1.967   2.124   2.286
    65.92    1.835   1.823   1.820   1.838   1.843   1.837   1.889   1.825   1.894   1.959   1.958   1.997   2.216   2.079   2.023   1.946   1.943   1.822   1.957   1.911   1.939   1.908   1.937   2.001   2.234   2.345
    64.19    1.824   1.815   1.749   1.676   1.826   1.839   1.820   1.826   1.840   1.944   2.043   2.057   2.168   2.129   2.048   1.955   1.957   1.848   1.966   1.945   1.859   1.824   1.918   2.023   2.198   2.275
    62.46    1.820   1.793   1.667   1.693   1.799   1.762   1.782   1.843   1.756   1.973   2.008   2.095   2.136   2.154   2.051   2.019   1.899   1.837   1.841   1.978   1.872   1.919   1.999   2.011   2.120   2.206
    60.73    1.748   1.800   1.715   1.674   1.731   1.806   1.755   1.772   1.801   1.921   1.906   2.046   2.089   2.147   2.015   2.036   1.914   1.858   1.820   1.929   1.874   1.885   2.054   2.092   2.040   2.153
    59.01    1.756   1.760   1.687   1.740   1.676   1.888   1.827   1.801   1.913   1.899   1.889   1.953   2.024   2.122   1.984   2.013   1.860   1.863   1.872   1.846   1.924   2.006   2.017   2.145   2.029   2.105
    57.28    1.727   1.748   1.675   1.704   1.676   1.851   1.736   1.820   1.909   1.879   1.837   1.915   2.036   2.089   1.965   1.866   1.956   1.877   1.880   1.853   1.892   2.024   2.119   2.097   2.103   2.095
    55.55    1.736   1.775   1.746   1.658   1.692   1.834   1.773   1.850   1.850   1.958   1.875   2.014   2.038   2.153   2.044   1.820   1.899   1.853   1.915   1.887   1.897   2.082   2.014   2.018   2.063   2.114
    53.83    1.698   1.691   1.683   1.642   1.716   1.716   1.749   1.862   1.942   2.001   1.842   1.967   2.096   2.223   2.027   1.835   1.895   1.862   1.843   1.849   1.959   1.998   2.039   2.038   2.096   2.043
    52.10    1.783   1.710   1.685   1.654   1.748   1.645   1.731   1.827   1.835   1.985   1.943   2.046   2.129   2.159   2.100   1.864   1.895   1.804   1.797   1.863   1.998   1.974   2.029   2.083   2.099   2.057
    50.37    1.701   1.700   1.602   1.614   1.650   1.664   1.610   1.853   1.810   1.925   1.917   2.016   2.131   2.144   2.102   1.905   1.883   1.764   1.870   1.963   1.977   2.047   2.104   2.208   2.079   2.076
    48.65    1.712   1.700   1.557   1.599   1.552   1.655   1.610   1.862   1.853   1.917   1.839   2.015   2.158   2.149   2.078   1.966   1.843   1.744   1.826   1.936   2.060   2.032   2.117   2.209   2.144   2.016
    46.92    1.727   1.668   1.631   1.514   1.501   1.602   1.663   1.911   1.869   1.903   1.918   1.988   2.112   2.122   2.070   1.943   1.802   1.816   1.801   1.965   2.015   1.968   2.093   2.237   2.211   1.947
    45.19    1.759   1.690   1.579   1.536   1.540   1.561   1.736   1.902   1.817   1.926   1.829   2.002   2.069   2.149   2.064   1.961   1.817   1.840   1.816   2.000   2.017   2.085   2.158   2.281   2.210   1.997
    43.46    1.734   1.686   1.602   1.577   1.524   1.630   1.793   1.950   1.834   1.907   1.936   2.014   2.161   2.155   2.069   1.976   1.840   1.851   1.906   1.977   1.964   2.093   2.264   2.288   2.191   2.002
    41.74    1.709   1.611   1.604   1.529   1.652   1.710   1.762   1.876   1.809   1.925   2.033   2.077   2.110   2.167   2.045   2.002   1.881   1.881   1.909   1.952   1.964   2.094   2.213   2.224   2.106   1.879
    40.01    1.654   1.599   1.581   1.538   1.656   1.810   1.821   1.874   1.834   1.920   2.007   2.097   2.142   2.171   2.109   1.988   1.898   1.838   1.933   1.973   1.976   2.109   2.230   2.194   2.160   1.857
    38.28    1.642   1.608   1.577   1.580   1.659   1.824   1.797   1.789   1.760   1.942   2.015   2.213   2.117   2.167   2.047   1.922   1.917   1.802   1.906   1.932   1.905   2.076   2.257   2.235   2.078   1.951
    36.56    1.675   1.673   1.654   1.643   1.690   1.745   1.828   1.814   1.878   1.978   2.044   2.182   2.093   2.066   2.093   1.938   1.956   1.887   1.981   1.988   1.926   2.107   2.265   2.259   2.114   1.941
    34.83    1.673   1.637   1.631   1.614   1.621   1.739   1.788   1.839   1.863   1.933   2.052   2.104   2.113   2.073   2.005   1.979   1.974   1.960   2.031   2.005   2.039   2.153   2.241   2.254   2.175   1.934
    33.10    1.623   1.663   1.595   1.541   1.539   1.781   1.810   1.797   1.909   1.877   1.993   1.999   2.189   2.164   2.015   2.071   1.944   2.025   2.022   1.993   2.057   2.082   2.274   2.257   2.203   2.021
    31.37    1.634   1.678   1.618   1.544   1.573   1.767   1.831   1.794   1.854   1.963   1.990   2.060   2.174   2.202   2.075   1.990   2.025   1.993   1.955   2.016   2.045   2.017   2.159   2.269   2.190   2.086
    29.65    1.681   1.667   1.647   1.579   1.639   1.772   1.841   1.830   1.774   1.870   1.996   2.049   2.112   2.157   2.063   1.964   2.061   1.998   2.026   1.941   1.950   1.931   2.136   2.114   2.125   1.981
    27.92    1.673   1.627   1.630   1.701   1.717   1.755   1.804   1.781   1.753   1.884   1.901   2.018   2.038   2.159   2.142   2.011   2.055   1.973   1.991   1.944   1.918   1.931   2.114   2.168   2.090   1.919
    26.19    1.708   1.646   1.647   1.679   1.807   1.767   1.786   1.836   1.816   1.872   1.854   2.008   1.984   2.050   2.141   1.983   1.979   1.919   1.931   1.889   1.986   1.923   2.104   2.112   2.006   1.964
    24.47    1.693   1.690   1.696   1.689   1.743   1.783   1.761   1.842   1.805   1.881   1.921   2.014   1.969   2.067   2.018   1.997   2.001   1.882   1.907   1.882   1.929   1.919   2.047   2.142   2.055   1.973
    22.74    1.698   1.717   1.793   1.813   1.862   1.902   1.838   1.822   1.866   1.879   1.992   1.959   1.914   2.055   1.994   1.973   1.907   1.825   1.888   1.902   1.882   1.981   2.066   2.105   2.036   1.950
    21.01    1.698   1.688   1.828   1.869   1.909   1.920   1.815   1.805   1.879   1.873   2.025   1.985   1.945   2.032   2.080   1.915   1.871   1.873   1.919   1.902   1.849   1.998   2.027   2.062   1.973   1.937
    19.29    1.713   1.699   1.831   1.916   1.963   1.973   1.862   1.732   1.839   1.880   1.999   2.072   2.061   1.960   2.019   1.910   1.843   1.898   1.936   1.930   1.960   2.079   2.080   1.971   1.948   1.890
    17.56    1.731   1.789   1.881   1.910   2.031   1.988   1.871   1.727   1.886   1.856   2.028   2.107   1.977   1.990   1.990   1.914   1.857   1.838   2.042   1.906   1.982   2.041   2.043   1.876   1.920   1.976
    15.83    1.844   1.884   1.979   1.978   2.062   2.028   1.919   1.766   1.889   1.884   1.983   2.082   2.011   1.994   2.016   1.954   1.856   1.904   1.944   1.997   1.999   1.964   2.085   1.936   1.829   1.947
    14.10    1.886   1.885   2.072   2.017   2.172   2.143   1.960   1.851   1.956   1.982   1.926   2.068   2.004   1.974   2.018   1.922   1.890   1.916   1.951   1.944   2.038   2.058   1.986   1.990   1.819   1.893
    12.38    1.916   1.933   2.016   2.094   2.151   2.128   1.947   1.899   1.972   1.944   1.963   2.022   2.103   2.018   1.960   1.963   1.928   1.928   2.016   2.026   2.023   1.984   1.937   2.042   1.798   1.882
    10.65    2.005   1.988   2.084   2.068   2.180   2.193   1.955   1.980   2.060   2.029   1.951   2.116   2.050   2.051   2.010   1.889   1.854   2.019   2.017   2.075   2.064   1.941   2.008   2.014   1.897   1.874

   Height   Standard deviation at grid points for the v component:
    74.55    1.639   1.639   1.639   1.639   1.639   1.639   1.639   1.639   1.639   1.639   1.639   1.639   1.639   1.639   1.639   1.639   1.639   1.639   1.639   1.639   1.639   1.639   1.639   1.639   1.639   1.639
    72.82    1.639   1.639   1.639   1.639   1.639   1.639   1.639   1.639   1.639   1.639   1.639   1.639   1.639   1.639   1.639   1.639   1.639   1.639   1.639   1.639   1.639   1.639   1.639   1.639   1.639   1.639
    71.10    1.639   1.639   1.639   1.639   1.639   1.639   1.639   1.639   1.639   1.639   1.639   1.639   1.639   1.639   1.639   1.639   1.639   1.639   1.639   1.639   1.639   1.639   1.639   1.639   1.639   1.639
    69.37    1.639   1.639   1.639   1.639   1.639   1.639   1.639   1.639   1.639   1.639   1.639   1.639   1.639   1.639   1.639   1.639   1.639   1.639   1.639   1.639   1.639   1.639   1.639   1.639   1.639   1.639
    67.64    1.639   1.639   1.639   1.639   1.639   1.639   1.639   1.639   1.639   1.639   1.639   1.639   1.639   1.639   1.639   1.639   1.639   1.639   1.639   1.639   1.639   1.639   1.639   1.639   1.639   1.639
    65.92    1.639   1.639   1.639   1.639   1.639   1.639   1.639   1.639   1.639   1.639   1.639   1.639   1.639   1.639   1.639   1.639   1.639   1.639   1.639   1.639   1.639   1.639   1.639   1.639   1.639   1.639
    64.19    1.639   1.639   1.639   1.639   1.639   1.639   1.639   1.639   1.639   1.639   1.639   1.639   1.639   1.639   1.639   1.639   1.639   1.639   1.639   1.639   1.639   1.639   1.639   1.639   1.639   1.639
    62.46    1.639   1.639   1.639   1.639   1.639   1.639   1.639   1.639   1.639   1.639   1.639   1.639   1.639   1.639   1.639   1.639   1.639   1.639   1.639   1.639   1.639   1.639   1.639   1.639   1.639   1.639
    60.73    1.639   1.639   1.639   1.639   1.639   1.639   1.639   1.639   1.639   1.639   1.639   1.639   1.639   1.639   1.639   1.639   1.639   1.639   1.639   1.639   1.639   1.639   1.639   1.639   1.639   1.639
    59.01    1.639   1.639   1.639   1.639   1.639   1.639   1.639   1.639   1.639   1.639   1.639   1.639   1.639   1.639   1.639   1.639   1.639   1.639   1.639   1.639   1.639   1.639   1.639   1.639   1.639   1.639
    57.28    1.639   1.639   1.639   1.639   1.639   1.639   1.639   1.639   1.639   1.639   1.639   1.639   1.639   1.639   1.639   1.639   1.639   1.639   1.639   1.639   1.639   1.639   1.639   1.639   1.639   1.639
    55.55    1.639   1.639   1.639   1.639   1.639   1.639   1.639   1.639   1.639   1.639   1.639   1.639   1.639   1.639   1.639   1.639   1.639   1.639   1.639   1.639   1.639   1.639   1.639   1.639   1.639   1.639
    53.83    1.639   1.639   1.639   1.639   1.639   1.639   1.639   1.639   1.639   1.639   1.639   1.639   1.639   1.639   1.639   1.639   1.639   1.639   1.639   1.639   1.639   1.639   1.639   1.639   1.639   1.639
    52.10    1.639   1.639   1.639   1.639   1.639   1.639   1.639   1.639   1.639   1.639   1.639   1.639   1.639   1.639   1.639   1.639   1.639   1.639   1.639   1.639   1.639   1.639   1.639   1.639   1.639   1.639
    50.37    1.639   1.639   1.639   1.639   1.639   1.639   1.639   1.639   1.639   1.639   1.639   1.639   1.639   1.639   1.639   1.639   1.639   1.639   1.639   1.639   1.639   1.639   1.639   1.639   1.639   1.639
    48.65    1.639   1.639   1.639   1.639   1.639   1.639   1.639   1.639   1.639   1.639   1.639   1.639   1.639   1.639   1.639   1.639   1.639   1.639   1.639   1.639   1.639   1.639   1.639   1.639   1.639   1.639
    46.92    1.639   1.639   1.639   1.639   1.639   1.639   1.639   1.639   1.639   1.639   1.639   1.639   1.639   1.639   1.639   1.639   1.639   1.639   1.639   1.639   1.639   1.639   1.639   1.639   1.639   1.639
    45.19    1.639   1.639   1.639   1.639   1.639   1.639   1.639   1.639   1.639   1.639   1.639   1.639   1.639   1.639   1.639   1.639   1.639   1.639   1.639   1.639   1.639   1.639   1.639   1.639   1.639   1.639
    43.46    1.639   1.639   1.639   1.639   1.639   1.639   1.639   1.639   1.639   1.639   1.639   1.639   1.639   1.639   1.639   1.639   1.639   1.639   1.639   1.639   1.639   1.639   1.639   1.639   1.639   1.639
    41.74    1.639   1.639   1.639   1.639   1.639   1.639   1.639   1.639   1.639   1.639   1.639   1.639   1.639   1.639   1.639   1.639   1.639   1.639   1.639   1.639   1.639   1.639   1.639   1.639   1.639   1.639
    40.01    1.639   1.639   1.639   1.639   1.639   1.639   1.639   1.639   1.639   1.639   1.639   1.639   1.639   1.639   1.639   1.639   1.639   1.639   1.639   1.639   1.639   1.639   1.639   1.639   1.639   1.639
    38.28    1.639   1.639   1.639   1.639   1.639   1.639   1.639   1.639   1.639   1.639   1.639   1.639   1.639   1.639   1.639   1.639   1.639   1.639   1.639   1.639   1.639   1.639   1.639   1.639   1.639   1.639
    36.56    1.639   1.639   1.639   1.639   1.639   1.639   1.639   1.639   1.639   1.639   1.639   1.639   1.639   1.639   1.639   1.639   1.639   1.639   1.639   1.639   1.639   1.639   1.639   1.639   1.639   1.639
    34.83    1.639   1.639   1.639   1.639   1.639   1.639   1.639   1.639   1.639   1.639   1.639   1.639   1.639   1.639   1.639   1.639   1.639   1.639   1.639   1.639   1.639   1.639   1.639   1.639   1.639   1.639
    33.10    1.639   1.639   1.639   1.639   1.639   1.639   1.639   1.639   1.639   1.639   1.639   1.639   1.639   1.639   1.639   1.639   1.639   1.639   1.639   1.639   1.639   1.639   1.639   1.639   1.639   1.639
    31.37    1.639   1.639   1.639   1.639   1.639   1.639   1.639   1.639   1.639   1.639   1.639   1.639   1.639   1.639   1.639   1.639   1.639   1.639   1.639   1.639   1.639   1.639   1.639   1.639   1.639   1.639
    29.65    1.639   1.639   1.639   1.639   1.639   1.639   1.639   1.639   1.639   1.639   1.639   1.639   1.639   1.639   1.639   1.639   1.639   1.639   1.639   1.639   1.639   1.639   1.639   1.639   1.639   1.639
    27.92    1.639   1.639   1.639   1.639   1.639   1.639   1.639   1.639   1.639   1.639   1.639   1.639   1.639   1.639   1.639   1.639   1.639   1.639   1.639   1.639   1.639   1.639   1.639   1.639   1.639   1.639
    26.19    1.639   1.639   1.639   1.639   1.639   1.639   1.639   1.639   1.639   1.639   1.639   1.639   1.639   1.639   1.639   1.639   1.639   1.639   1.639   1.639   1.639   1.639   1.639   1.639   1.639   1.639
    24.47    1.639   1.639   1.639   1.639   1.639   1.639   1.639   1.639   1.639   1.639   1.639   1.639   1.639   1.639   1.639   1.639   1.639   1.639   1.639   1.639   1.639   1.639   1.639   1.639   1.639   1.639
    22.74    1.639   1.639   1.639   1.639   1.639   1.639   1.639   1.639   1.639   1.639   1.639   1.639   1.639   1.639   1.639   1.639   1.639   1.639   1.639   1.639   1.639   1.639   1.639   1.639   1.639   1.639
    21.01    1.639   1.639   1.639   1.639   1.639   1.639   1.639   1.639   1.639   1.639   1.639   1.639   1.639   1.639   1.639   1.639   1.639   1.639   1.639   1.639   1.639   1.639   1.639   1.639   1.639   1.639
    19.29    1.639   1.639   1.639   1.639   1.639   1.639   1.639   1.639   1.639   1.639   1.639   1.639   1.639   1.639   1.639   1.639   1.639   1.639   1.639   1.639   1.639   1.639   1.639   1.639   1.639   1.639
    17.56    1.639   1.639   1.639   1.639   1.639   1.639   1.639   1.639   1.639   1.639   1.639   1.639   1.639   1.639   1.639   1.639   1.639   1.639   1.639   1.639   1.639   1.639   1.639   1.639   1.639   1.639
    15.83    1.639   1.639   1.639   1.639   1.639   1.639   1.639   1.639   1.639   1.639   1.639   1.639   1.639   1.639   1.639   1.639   1.639   1.639   1.639   1.639   1.639   1.639   1.639   1.639   1.639   1.639
    14.10    1.639   1.639   1.639   1.639   1.639   1.639   1.639   1.639   1.639   1.639   1.639   1.639   1.639   1.639   1.639   1.639   1.639   1.639   1.639   1.639   1.639   1.639   1.639   1.639   1.639   1.639
    12.38    1.639   1.639   1.639   1.639   1.639   1.639   1.639   1.639   1.639   1.639   1.639   1.639   1.639   1.639   1.639   1.639   1.639   1.639   1.639   1.639   1.639   1.639   1.639   1.639   1.639   1.639
    10.65    1.639   1.639   1.639   1.639   1.639   1.639   1.639   1.639   1.639   1.639   1.639   1.639   1.639   1.639   1.639   1.639   1.639   1.639   1.639   1.639   1.639   1.639   1.639   1.639   1.639   1.639

   Height   Standard deviation at grid points for the w component:
    74.55    1.022   1.022   1.022   1.022   1.022   1.022   1.022   1.022   1.022   1.022   1.022   1.022   1.022   1.022   1.022   1.022   1.022   1.022   1.022   1.022   1.022   1.022   1.022   1.022   1.022   1.022
    72.82    1.022   1.022   1.022   1.022   1.022   1.022   1.022   1.022   1.022   1.022   1.022   1.022   1.022   1.022   1.022   1.022   1.022   1.022   1.022   1.022   1.022   1.022   1.022   1.022   1.022   1.022
    71.10    1.022   1.022   1.022   1.022   1.022   1.022   1.022   1.022   1.022   1.022   1.022   1.022   1.022   1.022   1.022   1.022   1.022   1.022   1.022   1.022   1.022   1.022   1.022   1.022   1.022   1.022
    69.37    1.022   1.022   1.022   1.022   1.022   1.022   1.022   1.022   1.022   1.022   1.022   1.022   1.022   1.022   1.022   1.022   1.022   1.022   1.022   1.022   1.022   1.022   1.022   1.022   1.022   1.022
    67.64    1.022   1.022   1.022   1.022   1.022   1.022   1.022   1.022   1.022   1.022   1.022   1.022   1.022   1.022   1.022   1.022   1.022   1.022   1.022   1.022   1.022   1.022   1.022   1.022   1.022   1.022
    65.92    1.022   1.022   1.022   1.022   1.022   1.022   1.022   1.022   1.022   1.022   1.022   1.022   1.022   1.022   1.022   1.022   1.022   1.022   1.022   1.022   1.022   1.022   1.022   1.022   1.022   1.022
    64.19    1.022   1.022   1.022   1.022   1.022   1.022   1.022   1.022   1.022   1.022   1.022   1.022   1.022   1.022   1.022   1.022   1.022   1.022   1.022   1.022   1.022   1.022   1.022   1.022   1.022   1.022
    62.46    1.022   1.022   1.022   1.022   1.022   1.022   1.022   1.022   1.022   1.022   1.022   1.022   1.022   1.022   1.022   1.022   1.022   1.022   1.022   1.022   1.022   1.022   1.022   1.022   1.022   1.022
    60.73    1.022   1.022   1.022   1.022   1.022   1.022   1.022   1.022   1.022   1.022   1.022   1.022   1.022   1.022   1.022   1.022   1.022   1.022   1.022   1.022   1.022   1.022   1.022   1.022   1.022   1.022
    59.01    1.022   1.022   1.022   1.022   1.022   1.022   1.022   1.022   1.022   1.022   1.022   1.022   1.022   1.022   1.022   1.022   1.022   1.022   1.022   1.022   1.022   1.022   1.022   1.022   1.022   1.022
    57.28    1.022   1.022   1.022   1.022   1.022   1.022   1.022   1.022   1.022   1.022   1.022   1.022   1.022   1.022   1.022   1.022   1.022   1.022   1.022   1.022   1.022   1.022   1.022   1.022   1.022   1.022
    55.55    1.022   1.022   1.022   1.022   1.022   1.022   1.022   1.022   1.022   1.022   1.022   1.022   1.022   1.022   1.022   1.022   1.022   1.022   1.022   1.022   1.022   1.022   1.022   1.022   1.022   1.022
    53.83    1.022   1.022   1.022   1.022   1.022   1.022   1.022   1.022   1.022   1.022   1.022   1.022   1.022   1.022   1.022   1.022   1.022   1.022   1.022   1.022   1.022   1.022   1.022   1.022   1.022   1.022
    52.10    1.022   1.022   1.022   1.022   1.022   1.022   1.022   1.022   1.022   1.022   1.022   1.022   1.022   1.022   1.022   1.022   1.022   1.022   1.022   1.022   1.022   1.022   1.022   1.022   1.022   1.022
    50.37    1.022   1.022   1.022   1.022   1.022   1.022   1.022   1.022   1.022   1.022   1.022   1.022   1.022   1.022   1.022   1.022   1.022   1.022   1.022   1.022   1.022   1.022   1.022   1.022   1.022   1.022
    48.65    1.022   1.022   1.022   1.022   1.022   1.022   1.022   1.022   1.022   1.022   1.022   1.022   1.022   1.022   1.022   1.022   1.022   1.022   1.022   1.022   1.022   1.022   1.022   1.022   1.022   1.022
    46.92    1.022   1.022   1.022   1.022   1.022   1.022   1.022   1.022   1.022   1.022   1.022   1.022   1.022   1.022   1.022   1.022   1.022   1.022   1.022   1.022   1.022   1.022   1.022   1.022   1.022   1.022
    45.19    1.022   1.022   1.022   1.022   1.022   1.022   1.022   1.022   1.022   1.022   1.022   1.022   1.022   1.022   1.022   1.022   1.022   1.022   1.022   1.022   1.022   1.022   1.022   1.022   1.022   1.022
    43.46    1.022   1.022   1.022   1.022   1.022   1.022   1.022   1.022   1.022   1.022   1.022   1.022   1.022   1.022   1.022   1.022   1.022   1.022   1.022   1.022   1.022   1.022   1.022   1.022   1.022   1.022
    41.74    1.022   1.022   1.022   1.022   1.022   1.022   1.022   1.022   1.022   1.022   1.022   1.022   1.022   1.022   1.022   1.022   1.022   1.022   1.022   1.022   1.022   1.022   1.022   1.022   1.022   1.022
    40.01    1.022   1.022   1.022   1.022   1.022   1.022   1.022   1.022   1.022   1.022   1.022   1.022   1.022   1.022   1.022   1.022   1.022   1.022   1.022   1.022   1.022   1.022   1.022   1.022   1.022   1.022
    38.28    1.022   1.022   1.022   1.022   1.022   1.022   1.022   1.022   1.022   1.022   1.022   1.022   1.022   1.022   1.022   1.022   1.022   1.022   1.022   1.022   1.022   1.022   1.022   1.022   1.022   1.022
    36.56    1.022   1.022   1.022   1.022   1.022   1.022   1.022   1.022   1.022   1.022   1.022   1.022   1.022   1.022   1.022   1.022   1.022   1.022   1.022   1.022   1.022   1.022   1.022   1.022   1.022   1.022
    34.83    1.022   1.022   1.022   1.022   1.022   1.022   1.022   1.022   1.022   1.022   1.022   1.022   1.022   1.022   1.022   1.022   1.022   1.022   1.022   1.022   1.022   1.022   1.022   1.022   1.022   1.022
    33.10    1.022   1.022   1.022   1.022   1.022   1.022   1.022   1.022   1.022   1.022   1.022   1.022   1.022   1.022   1.022   1.022   1.022   1.022   1.022   1.022   1.022   1.022   1.022   1.022   1.022   1.022
    31.37    1.022   1.022   1.022   1.022   1.022   1.022   1.022   1.022   1.022   1.022   1.022   1.022   1.022   1.022   1.022   1.022   1.022   1.022   1.022   1.022   1.022   1.022   1.022   1.022   1.022   1.022
    29.65    1.022   1.022   1.022   1.022   1.022   1.022   1.022   1.022   1.022   1.022   1.022   1.022   1.022   1.022   1.022   1.022   1.022   1.022   1.022   1.022   1.022   1.022   1.022   1.022   1.022   1.022
    27.92    1.022   1.022   1.022   1.022   1.022   1.022   1.022   1.022   1.022   1.022   1.022   1.022   1.022   1.022   1.022   1.022   1.022   1.022   1.022   1.022   1.022   1.022   1.022   1.022   1.022   1.022
    26.19    1.022   1.022   1.022   1.022   1.022   1.022   1.022   1.022   1.022   1.022   1.022   1.022   1.022   1.022   1.022   1.022   1.022   1.022   1.022   1.022   1.022   1.022   1.022   1.022   1.022   1.022
    24.47    1.022   1.022   1.022   1.022   1.022   1.022   1.022   1.022   1.022   1.022   1.022   1.022   1.022   1.022   1.022   1.022   1.022   1.022   1.022   1.022   1.022   1.022   1.022   1.022   1.022   1.022
    22.74    1.022   1.022   1.022   1.022   1.022   1.022   1.022   1.022   1.022   1.022   1.022   1.022   1.022   1.022   1.022   1.022   1.022   1.022   1.022   1.022   1.022   1.022   1.022   1.022   1.022   1.022
    21.01    1.022   1.022   1.022   1.022   1.022   1.022   1.022   1.022   1.022   1.022   1.022   1.022   1.022   1.022   1.022   1.022   1.022   1.022   1.022   1.022   1.022   1.022   1.022   1.022   1.022   1.022
    19.29    1.022   1.022   1.022   1.022   1.022   1.022   1.022   1.022   1.022   1.022   1.022   1.022   1.022   1.022   1.022   1.022   1.022   1.022   1.022   1.022   1.022   1.022   1.022   1.022   1.022   1.022
    17.56    1.022   1.022   1.022   1.022   1.022   1.022   1.022   1.022   1.022   1.022   1.022   1.022   1.022   1.022   1.022   1.022   1.022   1.022   1.022   1.022   1.022   1.022   1.022   1.022   1.022   1.022
    15.83    1.022   1.022   1.022   1.022   1.022   1.022   1.022   1.022   1.022   1.022   1.022   1.022   1.022   1.022   1.022   1.022   1.022   1.022   1.022   1.022   1.022   1.022   1.022   1.022   1.022   1.022
    14.10    1.022   1.022   1.022   1.022   1.022   1.022   1.022   1.022   1.022   1.022   1.022   1.022   1.022   1.022   1.022   1.022   1.022   1.022   1.022   1.022   1.022   1.022   1.022   1.022   1.022   1.022
    12.38    1.022   1.022   1.022   1.022   1.022   1.022   1.022   1.022   1.022   1.022   1.022   1.022   1.022   1.022   1.022   1.022   1.022   1.022   1.022   1.022   1.022   1.022   1.022   1.022   1.022   1.022
    10.65    1.022   1.022   1.022   1.022   1.022   1.022   1.022   1.022   1.022   1.022   1.022   1.022   1.022   1.022   1.022   1.022   1.022   1.022   1.022   1.022   1.022   1.022   1.022   1.022   1.022   1.022

   Mean standard deviation across all grid points:
      u component:    1.929 m/s
      v component:    1.639 m/s
      w component:    1.022 m/s


U-component (X) statistics from the interpolated hub point:

   Mean =   9.9810 m/s
   TI   =  20.1979 %


Processing complete.  256.35 CPU seconds used.
