
This summary file was generated by TurbSim (from OpenFAST-v2.5.0-3490-g24c05a74) on 22-Nov-2024 at 22:56:51.


Runtime Options:

     40071  Random seed #1
    RANLUX  Type of random number generator
         F  Output binary HH turbulence parameters?
         F  Output formatted turbulence parameters?
         F  Output AeroDyn HH files?
         T  Output AeroDyn FF files?
         F  Output BLADED FF files?
         F  Output tower data?
         F  Output HAWC FF files?
         F  Output formatted FF files?
         T  Output coherent turbulence time step file?
 0 -  NONE  IEC turbulence models scaled to exact specified standard deviation


Turbine/Model Specifications:

        38  Vertical grid-point matrix dimension
        26  Horizontal grid-point matrix dimension
     0.050  Time step [seconds]
   600.000  Analysis time [seconds]
   600.000  Usable output time [seconds]
    55.000  Hub height [m]
    82.500  Grid height [m]
   118.825  Grid width [m]
     0.000  Vertical flow angle [degrees]
     0.000  Horizontal flow angle [degrees]


Meteorological Boundary Conditions:

    IECKAI  IEC Kaimal spectral model
         1  IEC standard: IEC 61400-1 Ed. 3: 2005
         A  IEC turbulence characteristic
       NTM  IEC Normal Turbulence Model
       N/A  IEC Extreme Turbulence Model (ETM) "c" parameter [m/s]
       PL   Wind profile type
    55.000  Reference height [m]
    10.000  Reference wind speed [m/s]
       N/A  Jet height [m]
     0.200  Power law exponent
     0.030  Surface roughness length [m]


Non-IEC Meteorological Boundary Conditions:

       N/A  Site latitude [degrees]
       N/A  Gradient Richardson number
       N/A  Friction or shear velocity [m/s]
       N/A  Mixing layer depth [m]
       N/A  Mean hub u'w' Reynolds stress
       N/A  Mean hub u'v' Reynolds stress
       N/A  Mean hub v'w' Reynolds stress


Spatial Coherence Models:

       IEC  u-component coherence model
      NONE  v-component coherence model
      NONE  w-component coherence model
(   12.000, 0.385E-03)  u-component coherence parameters
                   N/A  v-component coherence parameters
                   N/A  w-component coherence parameters
       N/A  Coherence exponent


You have requested that the following file(s) be generated:

   ./turbsimfiles/DLC1_1Vinf10.0.bts (AeroDyn/TurbSim full-field wind file)


Turbulence Simulation Scaling Parameter Summary:

   Turbulence model used                            =  IEC Kaimal
   Turbulence characteristic                        =  A
   IEC turbulence type                              =  Normal Turbulence Model
   IEC standard                                     =  IEC 61400-1 Ed. 3: 2005
   Mean wind speed at hub height                    =   10.000 m/s
   Expected value of turbulence intensity at 15 m/s =   16.000%
   Characteristic value of standard deviation       =    2.096 m/s
   Turbulence scale                                 =   38.500 m
   u-component integral scale                       =  311.850 m
   Coherency scale                                  =  311.850 m
   Characteristic value of hub turbulence intensity =   20.960%
   Gradient Richardson number                       =    0.000

   Wind profile type                                =  Power law
   Power law exponent                               =    0.200
   Mean shear across rotor disk                     =    0.044 (m/s)/m
   Assumed rotor diameter                           =   82.500 m
   Surface roughness length                         =    0.030 m

   Nyquist frequency of turbulent wind field        =   10.000 Hz

   Number of time steps in the FFT                  =    12000
   Number of time steps output                      =    12000
   Number of points simulated                       =      989


Mean Flow Angles:

   Vertical   =   0.0 degrees
   Horizontal =   0.0 degrees

Mean Wind Speed Profile:

   Height    Wind Speed   Horizontal Angle  Vertical Angle  U-comp (X)   V-comp (Y)   W-comp (Z)
     (m)        (m/s)         (degrees)       (degrees)       (m/s)        (m/s)        (m/s)   
   ------    ----------   ----------------  --------------  ----------   ----------   ----------
     96.2       11.18            0.00            0.00         11.18         0.00         0.00
     94.0       11.13            0.00            0.00         11.13         0.00         0.00
     91.8       11.08            0.00            0.00         11.08         0.00         0.00
     89.6       11.02            0.00            0.00         11.02         0.00         0.00
     87.3       10.97            0.00            0.00         10.97         0.00         0.00
     85.1       10.91            0.00            0.00         10.91         0.00         0.00
     82.9       10.85            0.00            0.00         10.85         0.00         0.00
     80.6       10.80            0.00            0.00         10.80         0.00         0.00
     78.4       10.74            0.00            0.00         10.74         0.00         0.00
     76.2       10.67            0.00            0.00         10.67         0.00         0.00
     74.0       10.61            0.00            0.00         10.61         0.00         0.00
     71.7       10.55            0.00            0.00         10.55         0.00         0.00
     69.5       10.48            0.00            0.00         10.48         0.00         0.00
     67.3       10.41            0.00            0.00         10.41         0.00         0.00
     65.0       10.34            0.00            0.00         10.34         0.00         0.00
     62.8       10.27            0.00            0.00         10.27         0.00         0.00
     60.6       10.19            0.00            0.00         10.19         0.00         0.00
     58.3       10.12            0.00            0.00         10.12         0.00         0.00
     56.1       10.04            0.00            0.00         10.04         0.00         0.00
     55.0       10.00            0.00            0.00         10.00         0.00         0.00
     53.9        9.96            0.00            0.00          9.96         0.00         0.00
     51.7        9.88            0.00            0.00          9.88         0.00         0.00
     49.4        9.79            0.00            0.00          9.79         0.00         0.00
     47.2        9.70            0.00            0.00          9.70         0.00         0.00
     45.0        9.61            0.00            0.00          9.61         0.00         0.00
     42.7        9.51            0.00            0.00          9.51         0.00         0.00
     40.5        9.41            0.00            0.00          9.41         0.00         0.00
     38.3        9.30            0.00            0.00          9.30         0.00         0.00
     36.0        9.19            0.00            0.00          9.19         0.00         0.00
     33.8        9.07            0.00            0.00          9.07         0.00         0.00
     31.6        8.95            0.00            0.00          8.95         0.00         0.00
     29.4        8.82            0.00            0.00          8.82         0.00         0.00
     27.1        8.68            0.00            0.00          8.68         0.00         0.00
     24.9        8.53            0.00            0.00          8.53         0.00         0.00
     22.7        8.38            0.00            0.00          8.38         0.00         0.00
     20.4        8.20            0.00            0.00          8.20         0.00         0.00
     18.2        8.02            0.00            0.00          8.02         0.00         0.00
     16.0        7.81            0.00            0.00          7.81         0.00         0.00
     13.8        7.58            0.00            0.00          7.58         0.00         0.00


Harvested Random Seeds after Generation of the Random Numbers:

    165410250 K 1
            0 K 2


Hub-Height Simulated Turbulence Statistical Summary:

   Type of Wind        Min (m/s)   Mean (m/s)    Max (m/s)  Sigma (m/s)       TI (%)
   ----------------    ---------   ----------    ---------  -----------       ------
   Longitudinal (u)         5.32        10.00        19.12        2.164       21.645
   Lateral (v)             -5.83         0.00         5.87        1.637       16.366
   Vertical (w)            -3.37        -0.00         4.02        1.025       10.251
   U component              5.32        10.00        19.12        2.164       21.645
   V component             -5.83         0.00         5.87        1.637       16.366
   W component             -3.37        -0.00         4.02        1.025       10.251
   Horizontal (U&V)         5.35        10.14        19.12        2.138       21.083
   Total                    5.43        10.19        19.12        2.126       20.859

                       Min Reynolds     Mean Reynolds    Max Reynolds    Correlation
   Product             Stress (m/s)^2   Stress (m/s)^2   Stress (m/s)^2  Coefficient
   ----------------    --------------   --------------   --------------  -----------
   u'w'                    -14.348            -0.014            13.224        -0.006
   u'v'                    -28.078            -0.204            18.200        -0.058
   v'w'                    -10.478            -0.070             9.991        -0.042


   Friction Velocity (Ustar)  =      0.117 m/s
   Maximum Instantaneous TKE  =     41.581 (m/s)^2
   Maximum Instantaneous CTKE =     14.069 (m/s)^2


Grid Point Variance Summary:

   Y-coord  -59.41  -54.66  -49.91  -45.15  -40.40  -35.65  -30.89  -26.14  -21.39  -16.64  -11.88   -7.13   -2.38    2.38    7.13   11.88   16.64   21.39   26.14   30.89   35.65   40.40   45.15   49.91   54.66   59.41

   Height   Standard deviation at grid points for the u component:
    96.25    1.909   2.006   2.059   1.987   1.996   2.021   1.898   1.875   1.964   1.949   1.924   1.877   1.775   1.980   1.882   1.947   1.942   1.892   1.990   2.032   2.093   2.098   2.057   1.953   2.048   1.943
    94.02    1.857   1.999   1.980   1.971   1.958   2.044   1.942   1.937   1.922   1.919   1.891   1.986   1.852   1.958   1.936   1.971   1.916   1.884   2.017   1.975   2.051   2.021   1.956   1.876   2.053   1.956
    91.79    1.950   2.025   2.001   2.064   1.999   1.955   1.961   1.945   2.046   1.917   1.978   1.966   1.946   2.044   2.025   1.928   1.955   1.885   1.909   1.854   2.008   1.926   1.880   1.998   2.022   2.134
    89.56    1.950   1.918   1.981   1.983   1.998   1.904   1.806   1.887   1.982   1.969   2.024   2.019   1.956   2.010   1.966   1.845   1.962   1.862   1.916   1.841   1.876   1.932   1.881   1.909   2.024   2.198
    87.33    1.856   1.929   1.892   2.062   1.939   1.848   1.794   1.863   1.933   1.964   2.033   1.954   2.088   2.096   2.022   1.878   1.898   1.868   1.849   1.834   1.886   1.901   1.843   1.900   2.047   2.217
    85.10    1.855   1.844   1.862   1.890   1.877   1.864   1.907   1.816   1.889   1.934   1.933   1.939   2.159   2.011   1.968   1.912   1.909   1.802   1.923   1.854   1.909   1.860   1.872   1.933   2.168   2.302
    82.87    1.836   1.830   1.786   1.702   1.850   1.859   1.818   1.810   1.827   1.907   2.024   2.007   2.109   2.069   2.000   1.913   1.931   1.821   1.949   1.896   1.819   1.759   1.841   1.961   2.132   2.229
    80.64    1.836   1.815   1.696   1.726   1.835   1.769   1.775   1.829   1.710   1.928   1.981   2.056   2.085   2.089   2.013   1.973   1.868   1.790   1.809   1.933   1.828   1.869   1.931   1.929   2.055   2.165
    78.41    1.758   1.826   1.746   1.686   1.772   1.795   1.759   1.748   1.751   1.877   1.852   1.997   2.023   2.062   1.970   1.994   1.881   1.814   1.761   1.889   1.820   1.812   1.999   2.009   1.977   2.113
    76.18    1.771   1.785   1.715   1.783   1.702   1.887   1.845   1.770   1.874   1.867   1.841   1.889   1.941   2.035   1.928   1.982   1.807   1.821   1.818   1.797   1.871   1.930   1.952   2.070   1.967   2.073
    73.95    1.727   1.765   1.707   1.757   1.707   1.861   1.741   1.801   1.885   1.843   1.781   1.835   1.954   1.989   1.891   1.820   1.895   1.837   1.840   1.791   1.828   1.941   2.061   2.030   2.043   2.063
    71.72    1.736   1.798   1.774   1.709   1.705   1.852   1.765   1.825   1.816   1.903   1.835   1.945   1.958   2.062   1.983   1.765   1.835   1.802   1.883   1.823   1.814   2.013   1.942   1.937   1.995   2.086
    69.49    1.686   1.693   1.713   1.691   1.735   1.713   1.737   1.825   1.917   1.964   1.785   1.904   2.012   2.149   1.955   1.777   1.836   1.815   1.800   1.768   1.876   1.929   1.957   1.947   2.029   2.011
    67.26    1.773   1.720   1.721   1.687   1.768   1.634   1.723   1.775   1.800   1.945   1.896   1.974   2.053   2.095   2.041   1.812   1.846   1.765   1.751   1.778   1.919   1.905   1.957   1.987   2.049   2.032
    65.03    1.679   1.711   1.619   1.625   1.657   1.631   1.583   1.781   1.772   1.883   1.872   1.936   2.056   2.081   2.049   1.850   1.834   1.720   1.830   1.899   1.900   1.989   2.032   2.134   2.030   2.053
    62.80    1.706   1.727   1.548   1.602   1.529   1.623   1.566   1.789   1.809   1.867   1.779   1.941   2.094   2.092   2.037   1.921   1.811   1.696   1.784   1.869   1.999   1.978   2.060   2.139   2.099   2.001
    60.57    1.716   1.677   1.634   1.493   1.439   1.566   1.616   1.856   1.839   1.845   1.862   1.912   2.045   2.065   2.028   1.911   1.762   1.763   1.756   1.901   1.969   1.920   2.032   2.169   2.175   1.926
    58.34    1.753   1.707   1.589   1.507   1.464   1.507   1.699   1.863   1.789   1.875   1.766   1.916   1.991   2.093   2.032   1.925   1.777   1.799   1.764   1.954   1.994   2.058   2.112   2.232   2.185   1.990
    56.11    1.720   1.699   1.594   1.542   1.466   1.581   1.770   1.939   1.823   1.863   1.875   1.933   2.093   2.102   2.048   1.946   1.806   1.813   1.859   1.927   1.948   2.072   2.218   2.250   2.169   1.996
    53.89    1.676   1.594   1.571   1.491   1.606   1.683   1.739   1.878   1.800   1.894   1.995   2.020   2.047   2.120   2.016   1.976   1.837   1.837   1.866   1.912   1.954   2.069   2.166   2.179   2.086   1.865
    51.66    1.609   1.563   1.536   1.496   1.610   1.770   1.800   1.871   1.825   1.893   1.971   2.042   2.101   2.137   2.082   1.965   1.857   1.794   1.882   1.942   1.967   2.088   2.207   2.161   2.159   1.855
    49.43    1.596   1.548   1.522   1.529   1.612   1.779   1.762   1.779   1.743   1.925   1.997   2.187   2.088   2.144   2.019   1.887   1.862   1.764   1.866   1.899   1.885   2.055   2.231   2.213   2.063   1.960
    47.20    1.633   1.621   1.599   1.592   1.643   1.686   1.789   1.797   1.869   1.970   2.030   2.168   2.058   2.025   2.067   1.912   1.911   1.853   1.955   1.970   1.913   2.104   2.256   2.257   2.110   1.951
    44.97    1.635   1.575   1.574   1.568   1.562   1.671   1.741   1.816   1.858   1.917   2.038   2.087   2.071   2.015   1.970   1.945   1.942   1.933   2.015   1.997   2.046   2.179   2.243   2.250   2.184   1.937
    42.74    1.573   1.593   1.545   1.468   1.481   1.699   1.752   1.772   1.914   1.858   1.965   1.966   2.153   2.125   1.988   2.062   1.917   2.007   2.014   1.985   2.070   2.112   2.280   2.259   2.220   2.038
    40.51    1.578   1.612   1.569   1.454   1.477   1.682   1.770   1.770   1.857   1.937   1.975   2.030   2.136   2.175   2.043   1.980   2.002   1.979   1.941   2.014   2.052   2.037   2.141   2.264   2.209   2.118
    38.28    1.624   1.602   1.577   1.482   1.538   1.683   1.778   1.808   1.745   1.821   1.963   2.016   2.085   2.135   2.038   1.953   2.042   2.005   2.023   1.946   1.943   1.927   2.115   2.100   2.149   2.014
    36.05    1.619   1.557   1.542   1.602   1.607   1.663   1.740   1.736   1.701   1.834   1.864   1.976   2.008   2.137   2.124   2.007   2.051   1.988   1.981   1.945   1.904   1.928   2.098   2.166   2.125   1.945
    33.82    1.663   1.572   1.554   1.582   1.710   1.672   1.707   1.790   1.770   1.817   1.788   1.951   1.958   2.018   2.116   1.974   1.960   1.917   1.905   1.874   1.980   1.914   2.090   2.120   2.025   1.988
    31.59    1.640   1.621   1.606   1.588   1.651   1.685   1.691   1.793   1.752   1.839   1.845   1.968   1.950   2.025   1.977   1.974   1.992   1.861   1.881   1.855   1.921   1.902   2.019   2.153   2.084   1.995
    29.36    1.642   1.651   1.721   1.729   1.772   1.819   1.778   1.782   1.816   1.830   1.925   1.913   1.880   2.016   1.951   1.946   1.893   1.804   1.840   1.872   1.873   1.955   2.051   2.113   2.055   1.954
    27.13    1.634   1.615   1.753   1.789   1.827   1.831   1.755   1.765   1.841   1.829   1.975   1.937   1.902   2.004   2.056   1.885   1.854   1.857   1.885   1.879   1.827   1.970   2.015   2.063   1.981   1.924
    24.90    1.655   1.629   1.752   1.844   1.890   1.886   1.807   1.689   1.777   1.838   1.943   2.028   2.035   1.932   1.989   1.883   1.816   1.887   1.901   1.917   1.944   2.075   2.085   1.976   1.940   1.872
    22.67    1.672   1.737   1.818   1.850   1.963   1.906   1.806   1.674   1.821   1.808   1.985   2.066   1.944   1.960   1.959   1.878   1.835   1.816   2.023   1.897   1.962   2.041   2.031   1.863   1.913   1.964
    20.44    1.800   1.850   1.930   1.938   2.000   1.943   1.870   1.719   1.832   1.835   1.954   2.042   1.986   1.965   1.982   1.923   1.834   1.884   1.918   1.982   1.985   1.955   2.071   1.911   1.815   1.937
    18.21    1.850   1.846   2.034   1.982   2.124   2.086   1.928   1.812   1.915   1.948   1.890   2.040   1.973   1.949   1.991   1.893   1.891   1.898   1.938   1.927   2.021   2.053   1.968   1.961   1.802   1.862
    15.98    1.889   1.902   1.985   2.076   2.121   2.081   1.920   1.867   1.933   1.904   1.942   1.995   2.091   1.987   1.930   1.947   1.928   1.910   2.010   2.020   2.012   1.979   1.908   2.014   1.762   1.844
    13.75    1.987   1.969   2.066   2.046   2.159   2.169   1.934   1.966   2.042   2.004   1.930   2.098   2.036   2.038   1.989   1.864   1.834   2.004   2.009   2.070   2.062   1.934   1.991   1.981   1.857   1.839

   Height   Standard deviation at grid points for the v component:
    96.25    1.637   1.637   1.637   1.637   1.637   1.637   1.637   1.637   1.637   1.637   1.637   1.637   1.637   1.637   1.637   1.637   1.637   1.637   1.637   1.637   1.637   1.637   1.637   1.637   1.637   1.637
    94.02    1.637   1.637   1.637   1.637   1.637   1.637   1.637   1.637   1.637   1.637   1.637   1.637   1.637   1.637   1.637   1.637   1.637   1.637   1.637   1.637   1.637   1.637   1.637   1.637   1.637   1.637
    91.79    1.637   1.637   1.637   1.637   1.637   1.637   1.637   1.637   1.637   1.637   1.637   1.637   1.637   1.637   1.637   1.637   1.637   1.637   1.637   1.637   1.637   1.637   1.637   1.637   1.637   1.637
    89.56    1.637   1.637   1.637   1.637   1.637   1.637   1.637   1.637   1.637   1.637   1.637   1.637   1.637   1.637   1.637   1.637   1.637   1.637   1.637   1.637   1.637   1.637   1.637   1.637   1.637   1.637
    87.33    1.637   1.637   1.637   1.637   1.637   1.637   1.637   1.637   1.637   1.637   1.637   1.637   1.637   1.637   1.637   1.637   1.637   1.637   1.637   1.637   1.637   1.637   1.637   1.637   1.637   1.637
    85.10    1.637   1.637   1.637   1.637   1.637   1.637   1.637   1.637   1.637   1.637   1.637   1.637   1.637   1.637   1.637   1.637   1.637   1.637   1.637   1.637   1.637   1.637   1.637   1.637   1.637   1.637
    82.87    1.637   1.637   1.637   1.637   1.637   1.637   1.637   1.637   1.637   1.637   1.637   1.637   1.637   1.637   1.637   1.637   1.637   1.637   1.637   1.637   1.637   1.637   1.637   1.637   1.637   1.637
    80.64    1.637   1.637   1.637   1.637   1.637   1.637   1.637   1.637   1.637   1.637   1.637   1.637   1.637   1.637   1.637   1.637   1.637   1.637   1.637   1.637   1.637   1.637   1.637   1.637   1.637   1.637
    78.41    1.637   1.637   1.637   1.637   1.637   1.637   1.637   1.637   1.637   1.637   1.637   1.637   1.637   1.637   1.637   1.637   1.637   1.637   1.637   1.637   1.637   1.637   1.637   1.637   1.637   1.637
    76.18    1.637   1.637   1.637   1.637   1.637   1.637   1.637   1.637   1.637   1.637   1.637   1.637   1.637   1.637   1.637   1.637   1.637   1.637   1.637   1.637   1.637   1.637   1.637   1.637   1.637   1.637
    73.95    1.637   1.637   1.637   1.637   1.637   1.637   1.637   1.637   1.637   1.637   1.637   1.637   1.637   1.637   1.637   1.637   1.637   1.637   1.637   1.637   1.637   1.637   1.637   1.637   1.637   1.637
    71.72    1.637   1.637   1.637   1.637   1.637   1.637   1.637   1.637   1.637   1.637   1.637   1.637   1.637   1.637   1.637   1.637   1.637   1.637   1.637   1.637   1.637   1.637   1.637   1.637   1.637   1.637
    69.49    1.637   1.637   1.637   1.637   1.637   1.637   1.637   1.637   1.637   1.637   1.637   1.637   1.637   1.637   1.637   1.637   1.637   1.637   1.637   1.637   1.637   1.637   1.637   1.637   1.637   1.637
    67.26    1.637   1.637   1.637   1.637   1.637   1.637   1.637   1.637   1.637   1.637   1.637   1.637   1.637   1.637   1.637   1.637   1.637   1.637   1.637   1.637   1.637   1.637   1.637   1.637   1.637   1.637
    65.03    1.637   1.637   1.637   1.637   1.637   1.637   1.637   1.637   1.637   1.637   1.637   1.637   1.637   1.637   1.637   1.637   1.637   1.637   1.637   1.637   1.637   1.637   1.637   1.637   1.637   1.637
    62.80    1.637   1.637   1.637   1.637   1.637   1.637   1.637   1.637   1.637   1.637   1.637   1.637   1.637   1.637   1.637   1.637   1.637   1.637   1.637   1.637   1.637   1.637   1.637   1.637   1.637   1.637
    60.57    1.637   1.637   1.637   1.637   1.637   1.637   1.637   1.637   1.637   1.637   1.637   1.637   1.637   1.637   1.637   1.637   1.637   1.637   1.637   1.637   1.637   1.637   1.637   1.637   1.637   1.637
    58.34    1.637   1.637   1.637   1.637   1.637   1.637   1.637   1.637   1.637   1.637   1.637   1.637   1.637   1.637   1.637   1.637   1.637   1.637   1.637   1.637   1.637   1.637   1.637   1.637   1.637   1.637
    56.11    1.637   1.637   1.637   1.637   1.637   1.637   1.637   1.637   1.637   1.637   1.637   1.637   1.637   1.637   1.637   1.637   1.637   1.637   1.637   1.637   1.637   1.637   1.637   1.637   1.637   1.637
    53.89    1.637   1.637   1.637   1.637   1.637   1.637   1.637   1.637   1.637   1.637   1.637   1.637   1.637   1.637   1.637   1.637   1.637   1.637   1.637   1.637   1.637   1.637   1.637   1.637   1.637   1.637
    51.66    1.637   1.637   1.637   1.637   1.637   1.637   1.637   1.637   1.637   1.637   1.637   1.637   1.637   1.637   1.637   1.637   1.637   1.637   1.637   1.637   1.637   1.637   1.637   1.637   1.637   1.637
    49.43    1.637   1.637   1.637   1.637   1.637   1.637   1.637   1.637   1.637   1.637   1.637   1.637   1.637   1.637   1.637   1.637   1.637   1.637   1.637   1.637   1.637   1.637   1.637   1.637   1.637   1.637
    47.20    1.637   1.637   1.637   1.637   1.637   1.637   1.637   1.637   1.637   1.637   1.637   1.637   1.637   1.637   1.637   1.637   1.637   1.637   1.637   1.637   1.637   1.637   1.637   1.637   1.637   1.637
    44.97    1.637   1.637   1.637   1.637   1.637   1.637   1.637   1.637   1.637   1.637   1.637   1.637   1.637   1.637   1.637   1.637   1.637   1.637   1.637   1.637   1.637   1.637   1.637   1.637   1.637   1.637
    42.74    1.637   1.637   1.637   1.637   1.637   1.637   1.637   1.637   1.637   1.637   1.637   1.637   1.637   1.637   1.637   1.637   1.637   1.637   1.637   1.637   1.637   1.637   1.637   1.637   1.637   1.637
    40.51    1.637   1.637   1.637   1.637   1.637   1.637   1.637   1.637   1.637   1.637   1.637   1.637   1.637   1.637   1.637   1.637   1.637   1.637   1.637   1.637   1.637   1.637   1.637   1.637   1.637   1.637
    38.28    1.637   1.637   1.637   1.637   1.637   1.637   1.637   1.637   1.637   1.637   1.637   1.637   1.637   1.637   1.637   1.637   1.637   1.637   1.637   1.637   1.637   1.637   1.637   1.637   1.637   1.637
    36.05    1.637   1.637   1.637   1.637   1.637   1.637   1.637   1.637   1.637   1.637   1.637   1.637   1.637   1.637   1.637   1.637   1.637   1.637   1.637   1.637   1.637   1.637   1.637   1.637   1.637   1.637
    33.82    1.637   1.637   1.637   1.637   1.637   1.637   1.637   1.637   1.637   1.637   1.637   1.637   1.637   1.637   1.637   1.637   1.637   1.637   1.637   1.637   1.637   1.637   1.637   1.637   1.637   1.637
    31.59    1.637   1.637   1.637   1.637   1.637   1.637   1.637   1.637   1.637   1.637   1.637   1.637   1.637   1.637   1.637   1.637   1.637   1.637   1.637   1.637   1.637   1.637   1.637   1.637   1.637   1.637
    29.36    1.637   1.637   1.637   1.637   1.637   1.637   1.637   1.637   1.637   1.637   1.637   1.637   1.637   1.637   1.637   1.637   1.637   1.637   1.637   1.637   1.637   1.637   1.637   1.637   1.637   1.637
    27.13    1.637   1.637   1.637   1.637   1.637   1.637   1.637   1.637   1.637   1.637   1.637   1.637   1.637   1.637   1.637   1.637   1.637   1.637   1.637   1.637   1.637   1.637   1.637   1.637   1.637   1.637
    24.90    1.637   1.637   1.637   1.637   1.637   1.637   1.637   1.637   1.637   1.637   1.637   1.637   1.637   1.637   1.637   1.637   1.637   1.637   1.637   1.637   1.637   1.637   1.637   1.637   1.637   1.637
    22.67    1.637   1.637   1.637   1.637   1.637   1.637   1.637   1.637   1.637   1.637   1.637   1.637   1.637   1.637   1.637   1.637   1.637   1.637   1.637   1.637   1.637   1.637   1.637   1.637   1.637   1.637
    20.44    1.637   1.637   1.637   1.637   1.637   1.637   1.637   1.637   1.637   1.637   1.637   1.637   1.637   1.637   1.637   1.637   1.637   1.637   1.637   1.637   1.637   1.637   1.637   1.637   1.637   1.637
    18.21    1.637   1.637   1.637   1.637   1.637   1.637   1.637   1.637   1.637   1.637   1.637   1.637   1.637   1.637   1.637   1.637   1.637   1.637   1.637   1.637   1.637   1.637   1.637   1.637   1.637   1.637
    15.98    1.637   1.637   1.637   1.637   1.637   1.637   1.637   1.637   1.637   1.637   1.637   1.637   1.637   1.637   1.637   1.637   1.637   1.637   1.637   1.637   1.637   1.637   1.637   1.637   1.637   1.637
    13.75    1.637   1.637   1.637   1.637   1.637   1.637   1.637   1.637   1.637   1.637   1.637   1.637   1.637   1.637   1.637   1.637   1.637   1.637   1.637   1.637   1.637   1.637   1.637   1.637   1.637   1.637

   Height   Standard deviation at grid points for the w component:
    96.25    1.025   1.025   1.025   1.025   1.025   1.025   1.025   1.025   1.025   1.025   1.025   1.025   1.025   1.025   1.025   1.025   1.025   1.025   1.025   1.025   1.025   1.025   1.025   1.025   1.025   1.025
    94.02    1.025   1.025   1.025   1.025   1.025   1.025   1.025   1.025   1.025   1.025   1.025   1.025   1.025   1.025   1.025   1.025   1.025   1.025   1.025   1.025   1.025   1.025   1.025   1.025   1.025   1.025
    91.79    1.025   1.025   1.025   1.025   1.025   1.025   1.025   1.025   1.025   1.025   1.025   1.025   1.025   1.025   1.025   1.025   1.025   1.025   1.025   1.025   1.025   1.025   1.025   1.025   1.025   1.025
    89.56    1.025   1.025   1.025   1.025   1.025   1.025   1.025   1.025   1.025   1.025   1.025   1.025   1.025   1.025   1.025   1.025   1.025   1.025   1.025   1.025   1.025   1.025   1.025   1.025   1.025   1.025
    87.33    1.025   1.025   1.025   1.025   1.025   1.025   1.025   1.025   1.025   1.025   1.025   1.025   1.025   1.025   1.025   1.025   1.025   1.025   1.025   1.025   1.025   1.025   1.025   1.025   1.025   1.025
    85.10    1.025   1.025   1.025   1.025   1.025   1.025   1.025   1.025   1.025   1.025   1.025   1.025   1.025   1.025   1.025   1.025   1.025   1.025   1.025   1.025   1.025   1.025   1.025   1.025   1.025   1.025
    82.87    1.025   1.025   1.025   1.025   1.025   1.025   1.025   1.025   1.025   1.025   1.025   1.025   1.025   1.025   1.025   1.025   1.025   1.025   1.025   1.025   1.025   1.025   1.025   1.025   1.025   1.025
    80.64    1.025   1.025   1.025   1.025   1.025   1.025   1.025   1.025   1.025   1.025   1.025   1.025   1.025   1.025   1.025   1.025   1.025   1.025   1.025   1.025   1.025   1.025   1.025   1.025   1.025   1.025
    78.41    1.025   1.025   1.025   1.025   1.025   1.025   1.025   1.025   1.025   1.025   1.025   1.025   1.025   1.025   1.025   1.025   1.025   1.025   1.025   1.025   1.025   1.025   1.025   1.025   1.025   1.025
    76.18    1.025   1.025   1.025   1.025   1.025   1.025   1.025   1.025   1.025   1.025   1.025   1.025   1.025   1.025   1.025   1.025   1.025   1.025   1.025   1.025   1.025   1.025   1.025   1.025   1.025   1.025
    73.95    1.025   1.025   1.025   1.025   1.025   1.025   1.025   1.025   1.025   1.025   1.025   1.025   1.025   1.025   1.025   1.025   1.025   1.025   1.025   1.025   1.025   1.025   1.025   1.025   1.025   1.025
    71.72    1.025   1.025   1.025   1.025   1.025   1.025   1.025   1.025   1.025   1.025   1.025   1.025   1.025   1.025   1.025   1.025   1.025   1.025   1.025   1.025   1.025   1.025   1.025   1.025   1.025   1.025
    69.49    1.025   1.025   1.025   1.025   1.025   1.025   1.025   1.025   1.025   1.025   1.025   1.025   1.025   1.025   1.025   1.025   1.025   1.025   1.025   1.025   1.025   1.025   1.025   1.025   1.025   1.025
    67.26    1.025   1.025   1.025   1.025   1.025   1.025   1.025   1.025   1.025   1.025   1.025   1.025   1.025   1.025   1.025   1.025   1.025   1.025   1.025   1.025   1.025   1.025   1.025   1.025   1.025   1.025
    65.03    1.025   1.025   1.025   1.025   1.025   1.025   1.025   1.025   1.025   1.025   1.025   1.025   1.025   1.025   1.025   1.025   1.025   1.025   1.025   1.025   1.025   1.025   1.025   1.025   1.025   1.025
    62.80    1.025   1.025   1.025   1.025   1.025   1.025   1.025   1.025   1.025   1.025   1.025   1.025   1.025   1.025   1.025   1.025   1.025   1.025   1.025   1.025   1.025   1.025   1.025   1.025   1.025   1.025
    60.57    1.025   1.025   1.025   1.025   1.025   1.025   1.025   1.025   1.025   1.025   1.025   1.025   1.025   1.025   1.025   1.025   1.025   1.025   1.025   1.025   1.025   1.025   1.025   1.025   1.025   1.025
    58.34    1.025   1.025   1.025   1.025   1.025   1.025   1.025   1.025   1.025   1.025   1.025   1.025   1.025   1.025   1.025   1.025   1.025   1.025   1.025   1.025   1.025   1.025   1.025   1.025   1.025   1.025
    56.11    1.025   1.025   1.025   1.025   1.025   1.025   1.025   1.025   1.025   1.025   1.025   1.025   1.025   1.025   1.025   1.025   1.025   1.025   1.025   1.025   1.025   1.025   1.025   1.025   1.025   1.025
    53.89    1.025   1.025   1.025   1.025   1.025   1.025   1.025   1.025   1.025   1.025   1.025   1.025   1.025   1.025   1.025   1.025   1.025   1.025   1.025   1.025   1.025   1.025   1.025   1.025   1.025   1.025
    51.66    1.025   1.025   1.025   1.025   1.025   1.025   1.025   1.025   1.025   1.025   1.025   1.025   1.025   1.025   1.025   1.025   1.025   1.025   1.025   1.025   1.025   1.025   1.025   1.025   1.025   1.025
    49.43    1.025   1.025   1.025   1.025   1.025   1.025   1.025   1.025   1.025   1.025   1.025   1.025   1.025   1.025   1.025   1.025   1.025   1.025   1.025   1.025   1.025   1.025   1.025   1.025   1.025   1.025
    47.20    1.025   1.025   1.025   1.025   1.025   1.025   1.025   1.025   1.025   1.025   1.025   1.025   1.025   1.025   1.025   1.025   1.025   1.025   1.025   1.025   1.025   1.025   1.025   1.025   1.025   1.025
    44.97    1.025   1.025   1.025   1.025   1.025   1.025   1.025   1.025   1.025   1.025   1.025   1.025   1.025   1.025   1.025   1.025   1.025   1.025   1.025   1.025   1.025   1.025   1.025   1.025   1.025   1.025
    42.74    1.025   1.025   1.025   1.025   1.025   1.025   1.025   1.025   1.025   1.025   1.025   1.025   1.025   1.025   1.025   1.025   1.025   1.025   1.025   1.025   1.025   1.025   1.025   1.025   1.025   1.025
    40.51    1.025   1.025   1.025   1.025   1.025   1.025   1.025   1.025   1.025   1.025   1.025   1.025   1.025   1.025   1.025   1.025   1.025   1.025   1.025   1.025   1.025   1.025   1.025   1.025   1.025   1.025
    38.28    1.025   1.025   1.025   1.025   1.025   1.025   1.025   1.025   1.025   1.025   1.025   1.025   1.025   1.025   1.025   1.025   1.025   1.025   1.025   1.025   1.025   1.025   1.025   1.025   1.025   1.025
    36.05    1.025   1.025   1.025   1.025   1.025   1.025   1.025   1.025   1.025   1.025   1.025   1.025   1.025   1.025   1.025   1.025   1.025   1.025   1.025   1.025   1.025   1.025   1.025   1.025   1.025   1.025
    33.82    1.025   1.025   1.025   1.025   1.025   1.025   1.025   1.025   1.025   1.025   1.025   1.025   1.025   1.025   1.025   1.025   1.025   1.025   1.025   1.025   1.025   1.025   1.025   1.025   1.025   1.025
    31.59    1.025   1.025   1.025   1.025   1.025   1.025   1.025   1.025   1.025   1.025   1.025   1.025   1.025   1.025   1.025   1.025   1.025   1.025   1.025   1.025   1.025   1.025   1.025   1.025   1.025   1.025
    29.36    1.025   1.025   1.025   1.025   1.025   1.025   1.025   1.025   1.025   1.025   1.025   1.025   1.025   1.025   1.025   1.025   1.025   1.025   1.025   1.025   1.025   1.025   1.025   1.025   1.025   1.025
    27.13    1.025   1.025   1.025   1.025   1.025   1.025   1.025   1.025   1.025   1.025   1.025   1.025   1.025   1.025   1.025   1.025   1.025   1.025   1.025   1.025   1.025   1.025   1.025   1.025   1.025   1.025
    24.90    1.025   1.025   1.025   1.025   1.025   1.025   1.025   1.025   1.025   1.025   1.025   1.025   1.025   1.025   1.025   1.025   1.025   1.025   1.025   1.025   1.025   1.025   1.025   1.025   1.025   1.025
    22.67    1.025   1.025   1.025   1.025   1.025   1.025   1.025   1.025   1.025   1.025   1.025   1.025   1.025   1.025   1.025   1.025   1.025   1.025   1.025   1.025   1.025   1.025   1.025   1.025   1.025   1.025
    20.44    1.025   1.025   1.025   1.025   1.025   1.025   1.025   1.025   1.025   1.025   1.025   1.025   1.025   1.025   1.025   1.025   1.025   1.025   1.025   1.025   1.025   1.025   1.025   1.025   1.025   1.025
    18.21    1.025   1.025   1.025   1.025   1.025   1.025   1.025   1.025   1.025   1.025   1.025   1.025   1.025   1.025   1.025   1.025   1.025   1.025   1.025   1.025   1.025   1.025   1.025   1.025   1.025   1.025
    15.98    1.025   1.025   1.025   1.025   1.025   1.025   1.025   1.025   1.025   1.025   1.025   1.025   1.025   1.025   1.025   1.025   1.025   1.025   1.025   1.025   1.025   1.025   1.025   1.025   1.025   1.025
    13.75    1.025   1.025   1.025   1.025   1.025   1.025   1.025   1.025   1.025   1.025   1.025   1.025   1.025   1.025   1.025   1.025   1.025   1.025   1.025   1.025   1.025   1.025   1.025   1.025   1.025   1.025

   Mean standard deviation across all grid points:
      u component:    1.898 m/s
      v component:    1.637 m/s
      w component:    1.025 m/s


U-component (X) statistics from the interpolated hub point:

   Mean =   9.9997 m/s
   TI   =  19.6617 %


Processing complete.  257.7 CPU seconds used.
