
This summary file was generated by TurbSim (from OpenFAST--128-NOTFOUND) on 10-Sep-2024 at 14:47:29.


Runtime Options:

     40071  Random seed #1
    RANLUX  Type of random number generator
         F  Output binary HH turbulence parameters?
         F  Output formatted turbulence parameters?
         F  Output AeroDyn HH files?
         T  Output AeroDyn FF files?
         F  Output BLADED FF files?
         F  Output tower data?
         F  Output HAWC FF files?
         F  Output formatted FF files?
         T  Output coherent turbulence time step file?
 0 -  NONE  IEC turbulence models scaled to exact specified standard deviation


Turbine/Model Specifications:

        38  Vertical grid-point matrix dimension
        26  Horizontal grid-point matrix dimension
     0.050  Time step [seconds]
    30.000  Analysis time [seconds]
    30.000  Usable output time [seconds]
    48.410  Hub height [m]
    72.614  Grid height [m]
   135.028  Grid width [m]
     0.000  Vertical flow angle [degrees]
     0.000  Horizontal flow angle [degrees]


Meteorological Boundary Conditions:

    IECKAI  IEC Kaimal spectral model
         1  IEC standard: IEC 61400-1 Ed. 3: 2005
         A  IEC turbulence characteristic
       NTM  IEC Normal Turbulence Model
       N/A  IEC Extreme Turbulence Model (ETM) "c" parameter [m/s]
       PL   Wind profile type
     3.000  Reference height [m]
    10.000  Reference wind speed [m/s]
       N/A  Jet height [m]
     0.200  Power law exponent
     0.030  Surface roughness length [m]


Non-IEC Meteorological Boundary Conditions:

       N/A  Site latitude [degrees]
       N/A  Gradient Richardson number
       N/A  Friction or shear velocity [m/s]
       N/A  Mixing layer depth [m]
       N/A  Mean hub u'w' Reynolds stress
       N/A  Mean hub u'v' Reynolds stress
       N/A  Mean hub v'w' Reynolds stress


Spatial Coherence Models:

       IEC  u-component coherence model
      NONE  v-component coherence model
      NONE  w-component coherence model
(   12.000, 0.437E-03)  u-component coherence parameters
                   N/A  v-component coherence parameters
                   N/A  w-component coherence parameters
       N/A  Coherence exponent


You have requested that the following file(s) be generated:

   ./turbsimfiles/DLC1_1Vinf10.0.bts (AeroDyn/TurbSim full-field wind file)


Turbulence Simulation Scaling Parameter Summary:

   Turbulence model used                            =  IEC Kaimal
   Turbulence characteristic                        =  A
   IEC turbulence type                              =  Normal Turbulence Model
   IEC standard                                     =  IEC 61400-1 Ed. 3: 2005
   Mean wind speed at hub height                    =   17.441 m/s
   Expected value of turbulence intensity at 15 m/s =   16.000%
   Characteristic value of standard deviation       =    2.989 m/s
   Turbulence scale                                 =   33.887 m
   u-component integral scale                       =  274.482 m
   Coherency scale                                  =  274.482 m
   Characteristic value of hub turbulence intensity =   17.137%
   Gradient Richardson number                       =    0.000

   Wind profile type                                =  Power law
   Power law exponent                               =    0.200
   Mean shear across rotor disk                     =    0.087 (m/s)/m
   Assumed rotor diameter                           =   72.614 m
   Surface roughness length                         =    0.030 m

   Nyquist frequency of turbulent wind field        =   10.000 Hz

   Number of time steps in the FFT                  =      600
   Number of time steps output                      =      600
   Number of points simulated                       =      989


Mean Flow Angles:

   Vertical   =   0.0 degrees
   Horizontal =   0.0 degrees

Mean Wind Speed Profile:

   Height    Wind Speed   Horizontal Angle  Vertical Angle  U-comp (X)   V-comp (Y)   W-comp (Z)
     (m)        (m/s)         (degrees)       (degrees)       (m/s)        (m/s)        (m/s)   
   ------    ----------   ----------------  --------------  ----------   ----------   ----------
     84.7       19.51            0.00            0.00         19.51         0.00         0.00
     82.8       19.41            0.00            0.00         19.41         0.00         0.00
     80.8       19.32            0.00            0.00         19.32         0.00         0.00
     78.8       19.23            0.00            0.00         19.23         0.00         0.00
     76.9       19.13            0.00            0.00         19.13         0.00         0.00
     74.9       19.03            0.00            0.00         19.03         0.00         0.00
     72.9       18.93            0.00            0.00         18.93         0.00         0.00
     71.0       18.83            0.00            0.00         18.83         0.00         0.00
     69.0       18.72            0.00            0.00         18.72         0.00         0.00
     67.1       18.61            0.00            0.00         18.61         0.00         0.00
     65.1       18.50            0.00            0.00         18.50         0.00         0.00
     63.1       18.39            0.00            0.00         18.39         0.00         0.00
     61.2       18.28            0.00            0.00         18.28         0.00         0.00
     59.2       18.16            0.00            0.00         18.16         0.00         0.00
     57.2       18.04            0.00            0.00         18.04         0.00         0.00
     55.3       17.91            0.00            0.00         17.91         0.00         0.00
     53.3       17.78            0.00            0.00         17.78         0.00         0.00
     51.4       17.65            0.00            0.00         17.65         0.00         0.00
     49.4       17.51            0.00            0.00         17.51         0.00         0.00
     48.4       17.44            0.00            0.00         17.44         0.00         0.00
     47.4       17.37            0.00            0.00         17.37         0.00         0.00
     45.5       17.22            0.00            0.00         17.22         0.00         0.00
     43.5       17.07            0.00            0.00         17.07         0.00         0.00
     41.5       16.91            0.00            0.00         16.91         0.00         0.00
     39.6       16.75            0.00            0.00         16.75         0.00         0.00
     37.6       16.58            0.00            0.00         16.58         0.00         0.00
     35.7       16.41            0.00            0.00         16.41         0.00         0.00
     33.7       16.22            0.00            0.00         16.22         0.00         0.00
     31.7       16.03            0.00            0.00         16.03         0.00         0.00
     29.8       15.82            0.00            0.00         15.82         0.00         0.00
     27.8       15.61            0.00            0.00         15.61         0.00         0.00
     25.8       15.38            0.00            0.00         15.38         0.00         0.00
     23.9       15.14            0.00            0.00         15.14         0.00         0.00
     21.9       14.88            0.00            0.00         14.88         0.00         0.00
     20.0       14.61            0.00            0.00         14.61         0.00         0.00
     18.0       14.31            0.00            0.00         14.31         0.00         0.00
     16.0       13.98            0.00            0.00         13.98         0.00         0.00
     14.1       13.62            0.00            0.00         13.62         0.00         0.00
     12.1       13.22            0.00            0.00         13.22         0.00         0.00


Harvested Random Seeds after Generation of the Random Numbers:

      8270413 K 1
            0 K 2


Hub-Height Simulated Turbulence Statistical Summary:

   Type of Wind        Min (m/s)   Mean (m/s)    Max (m/s)  Sigma (m/s)       TI (%)
   ----------------    ---------   ----------    ---------  -----------       ------
   Longitudinal (u)        12.40        17.44        21.76        1.831       10.501
   Lateral (v)             -5.13         0.00         6.10        2.027       11.621
   Vertical (w)            -3.28         0.00         4.10        1.390        7.972
   U component             12.40        17.44        21.76        1.831       10.501
   V component             -5.13         0.00         6.10        2.027       11.621
   W component             -3.28         0.00         4.10        1.390        7.972
   Horizontal (U&V)        12.57        17.56        21.76        1.847       10.522
   Total                   12.78        17.61        21.78        1.842       10.458

                       Min Reynolds     Mean Reynolds    Max Reynolds    Correlation
   Product             Stress (m/s)^2   Stress (m/s)^2   Stress (m/s)^2  Coefficient
   ----------------    --------------   --------------   --------------  -----------
   u'w'                    -15.473            -0.483             5.942        -0.190
   u'v'                     -8.438             0.881            12.513         0.237
   v'w'                    -19.806            -0.645            11.934        -0.229


   Friction Velocity (Ustar)  =      0.695 m/s
   Maximum Instantaneous TKE  =     25.633 (m/s)^2
   Maximum Instantaneous CTKE =     11.840 (m/s)^2


Grid Point Variance Summary:

   Y-coord  -67.51  -62.11  -56.71  -51.31  -45.91  -40.51  -35.11  -29.71  -24.31  -18.90  -13.50   -8.10   -2.70    2.70    8.10   13.50   18.90   24.31   29.71   35.11   40.51   45.91   51.31   56.71   62.11   67.51

   Height   Standard deviation at grid points for the u component:
    84.72    1.988   2.171   1.926   1.791   1.676   1.703   1.859   2.001   2.296   2.163   1.724   1.839   1.922   2.534   2.741   2.546   2.779   2.529   1.964   2.167   2.121   1.481   1.717   1.816   1.660   2.282
    82.75    1.794   2.061   2.240   1.814   2.012   1.861   1.592   2.104   2.297   2.057   1.937   1.964   2.046   2.521   2.609   2.613   2.599   2.531   1.974   2.299   1.794   1.555   1.701   1.724   1.797   2.363
    80.79    1.601   1.738   1.991   1.844   2.129   1.819   1.657   2.260   2.428   1.905   2.193   2.055   1.719   2.356   2.130   2.801   2.387   2.173   2.166   2.249   2.019   1.734   1.707   1.782   1.989   2.199
    78.83    1.883   1.729   1.747   1.479   1.927   1.752   1.825   2.079   2.234   1.974   1.991   2.051   1.845   2.211   2.162   2.655   2.397   2.103   2.218   2.385   1.823   1.680   1.831   1.761   1.678   2.052
    76.87    1.900   1.807   1.747   1.466   2.192   1.911   1.797   2.137   2.112   2.018   2.254   1.987   1.762   1.775   2.216   2.529   2.418   2.173   2.387   2.684   1.692   2.141   1.871   1.705   1.912   1.735
    74.90    1.702   1.876   1.732   1.697   2.015   1.938   1.519   1.908   1.805   1.910   2.383   1.919   1.879   1.756   1.978   2.426   2.662   2.317   2.057   2.452   1.895   2.029   1.714   1.924   1.888   1.874
    72.94    1.626   1.819   1.788   1.799   1.847   1.767   1.574   1.551   1.861   1.703   2.348   2.146   2.106   1.796   2.105   2.514   2.688   2.416   1.991   2.469   2.192   1.785   2.089   1.741   1.575   1.827
    70.98    1.879   1.906   1.900   1.850   2.171   2.031   2.016   1.393   1.938   2.010   2.067   2.007   1.829   2.239   2.339   2.398   2.503   2.350   2.162   2.311   2.295   2.082   2.106   1.956   1.650   2.021
    69.02    2.430   2.055   2.170   1.815   1.894   2.012   1.950   1.562   1.775   2.315   2.107   1.881   2.030   2.101   2.206   2.099   2.075   2.337   2.362   2.592   2.763   2.346   2.237   2.327   2.032   1.985
    67.05    2.245   2.145   2.247   2.278   1.900   1.931   1.695   1.773   2.062   2.707   2.143   1.997   1.970   2.190   2.587   2.126   1.900   2.241   2.656   2.571   2.575   2.268   2.391   2.163   2.112   2.234
    65.09    2.166   2.364   2.183   2.301   1.866   1.942   1.678   1.826   2.267   2.586   2.244   1.884   1.679   1.896   2.430   1.776   2.122   2.328   2.579   2.588   2.526   1.913   2.327   2.117   2.230   2.110
    63.13    2.364   2.251   2.126   2.140   2.195   1.957   1.492   1.725   2.358   2.692   2.128   2.046   1.834   1.823   2.332   2.132   1.772   2.203   2.302   2.724   2.318   2.007   2.122   2.239   2.038   2.257
    61.17    2.098   1.949   2.174   1.978   2.465   1.923   1.656   1.914   2.290   2.408   2.402   2.357   1.833   1.970   2.225   2.150   2.217   1.694   2.026   2.489   2.555   2.241   2.113   2.215   1.992   2.368
    59.20    2.297   2.283   2.647   2.701   2.385   1.902   1.484   2.099   2.452   2.491   2.200   2.290   1.743   2.338   2.126   1.973   2.195   1.821   1.747   2.631   2.506   1.889   2.021   1.722   1.841   2.564
    57.24    2.023   2.214   2.569   2.768   2.439   2.106   1.722   1.988   2.136   2.345   2.233   2.110   2.042   2.241   2.202   2.253   2.046   1.863   2.103   2.337   2.316   1.944   1.796   1.722   1.993   2.681
    55.28    2.464   2.330   2.674   2.612   2.134   2.031   1.984   2.141   1.978   2.688   2.173   2.311   2.123   1.800   2.056   1.981   2.001   1.752   1.914   2.283   2.107   2.016   1.968   1.895   2.026   2.690
    53.32    2.288   2.419   2.895   2.287   1.821   2.233   1.986   1.951   2.329   2.768   2.094   2.233   2.114   1.907   2.145   1.702   1.911   1.886   1.702   2.223   2.022   2.306   2.160   1.757   1.867   2.381
    51.35    1.972   2.365   2.608   2.383   1.968   2.559   2.304   2.094   2.425   2.548   2.440   2.193   2.013   2.154   2.170   2.081   2.187   1.876   2.185   1.989   2.096   2.337   2.141   2.187   1.816   2.006
    49.39    2.276   2.105   2.300   2.227   2.229   2.511   2.182   2.054   2.632   2.450   2.149   2.128   2.029   1.835   2.132   1.966   1.893   1.939   2.145   2.045   2.485   2.369   1.860   1.980   1.710   1.908
    47.43    2.020   1.993   2.140   2.377   2.208   2.223   2.137   1.737   2.430   2.246   2.056   2.403   1.826   1.563   1.794   1.756   2.113   2.132   2.099   1.932   2.568   2.175   1.970   1.880   2.180   1.664
    45.47    1.928   2.233   2.266   2.524   2.156   2.073   1.907   2.046   2.165   2.364   2.402   2.400   1.666   1.517   1.728   2.014   2.385   2.386   2.446   2.194   2.420   2.127   2.344   2.406   1.975   1.600
    43.50    2.019   2.416   2.406   2.351   2.032   2.213   1.839   1.862   2.241   2.256   1.962   2.287   2.163   1.733   1.779   1.904   2.600   2.345   2.612   2.495   2.394   2.353   2.524   2.593   2.001   1.599
    41.54    1.939   2.368   2.308   2.182   2.296   2.160   2.087   2.160   2.067   1.771   2.274   2.193   2.150   1.688   1.451   1.937   2.740   2.736   2.953   2.555   2.753   2.361   2.765   2.508   1.974   1.484
    39.58    1.983   2.613   2.372   1.974   2.304   1.925   2.354   2.185   2.063   2.103   2.486   2.048   2.005   1.663   1.601   1.740   2.452   2.707   3.029   2.771   2.580   2.413   2.709   2.338   1.994   1.627
    37.62    2.127   2.357   2.255   2.252   2.259   1.761   2.335   2.240   2.042   1.997   2.220   2.165   1.558   1.709   1.735   1.990   2.369   2.468   2.784   2.832   2.616   2.634   2.648   2.263   1.831   1.732
    35.65    2.222   2.515   1.993   2.231   1.977   1.919   2.039   1.918   2.183   1.817   2.118   2.035   1.765   1.762   1.782   1.727   2.244   2.833   2.792   2.522   2.455   2.381   2.354   2.233   1.882   1.744
    33.69    2.139   2.205   1.832   2.246   1.996   2.136   2.248   1.705   1.856   1.768   2.112   2.304   1.623   1.607   2.078   1.740   2.482   3.221   3.177   2.825   2.831   2.312   2.661   2.113   1.628   1.727
    31.73    1.786   2.030   1.720   2.377   2.078   2.419   1.952   2.094   1.845   1.588   2.181   2.104   1.642   1.593   1.872   1.928   2.397   3.014   2.861   2.689   2.697   2.354   2.648   2.193   1.979   1.644
    29.77    1.590   1.808   2.029   2.217   2.003   2.220   1.996   1.842   1.533   1.910   1.950   1.977   2.021   1.685   1.890   1.441   2.381   2.916   3.090   2.909   2.976   2.288   2.424   2.007   1.924   1.914
    27.80    1.635   1.858   2.337   2.605   2.066   2.084   2.466   1.807   1.804   1.751   1.780   1.939   2.003   1.687   1.940   1.691   2.337   2.581   2.842   2.789   2.685   2.493   2.144   1.917   1.893   1.806
    25.84    1.774   1.950   2.463   2.380   2.199   2.096   2.474   2.002   1.874   1.403   1.459   2.035   1.853   1.708   1.918   1.703   2.082   2.679   2.644   2.833   2.379   2.402   2.389   2.448   1.786   2.100
    23.88    1.792   2.027   2.250   2.262   2.065   2.248   2.373   2.363   1.914   1.485   1.583   1.914   1.861   1.764   2.137   1.604   1.888   2.528   2.280   2.342   2.753   2.420   2.911   2.779   2.102   2.245
    21.92    2.080   1.899   2.418   2.185   1.964   2.051   2.139   1.993   1.958   1.656   1.710   1.906   1.839   1.869   2.203   1.924   1.995   2.286   2.066   1.957   2.549   2.364   2.621   2.715   2.445   2.080
    19.95    2.195   1.918   2.436   1.994   2.226   2.103   2.022   1.677   1.903   1.484   1.425   1.741   1.684   1.878   1.934   1.760   1.777   2.227   1.990   1.755   2.343   2.486   2.755   2.518   2.542   1.856
    17.99    2.479   2.367   2.302   1.994   2.004   1.932   1.821   1.635   1.902   1.740   1.589   1.816   1.815   1.654   1.837   1.934   1.787   2.536   2.048   1.930   2.179   2.589   2.423   2.865   2.456   1.930
    16.03    2.417   1.835   1.969   1.902   1.708   1.802   1.745   1.724   2.065   1.553   1.518   1.670   1.624   1.742   1.939   1.727   1.821   2.429   2.123   2.295   2.119   2.205   2.423   2.676   1.869   1.978
    14.06    2.196   1.727   1.882   1.808   1.745   1.546   1.453   1.854   1.992   1.590   1.690   1.871   1.664   2.248   2.176   1.718   1.601   2.189   2.469   2.621   1.968   2.030   2.276   2.442   2.101   1.965
    12.10    2.101   1.651   1.588   1.717   1.453   1.496   1.367   1.740   1.914   1.731   1.653   1.920   2.133   2.123   1.957   1.642   1.887   1.927   2.450   2.306   1.700   1.787   1.994   2.288   2.285   2.369

   Height   Standard deviation at grid points for the v component:
    84.72    2.027   2.027   2.027   2.027   2.027   2.027   2.027   2.027   2.027   2.027   2.027   2.027   2.027   2.027   2.027   2.027   2.027   2.027   2.027   2.027   2.027   2.027   2.027   2.027   2.027   2.027
    82.75    2.027   2.027   2.027   2.027   2.027   2.027   2.027   2.027   2.027   2.027   2.027   2.027   2.027   2.027   2.027   2.027   2.027   2.027   2.027   2.027   2.027   2.027   2.027   2.027   2.027   2.027
    80.79    2.027   2.027   2.027   2.027   2.027   2.027   2.027   2.027   2.027   2.027   2.027   2.027   2.027   2.027   2.027   2.027   2.027   2.027   2.027   2.027   2.027   2.027   2.027   2.027   2.027   2.027
    78.83    2.027   2.027   2.027   2.027   2.027   2.027   2.027   2.027   2.027   2.027   2.027   2.027   2.027   2.027   2.027   2.027   2.027   2.027   2.027   2.027   2.027   2.027   2.027   2.027   2.027   2.027
    76.87    2.027   2.027   2.027   2.027   2.027   2.027   2.027   2.027   2.027   2.027   2.027   2.027   2.027   2.027   2.027   2.027   2.027   2.027   2.027   2.027   2.027   2.027   2.027   2.027   2.027   2.027
    74.90    2.027   2.027   2.027   2.027   2.027   2.027   2.027   2.027   2.027   2.027   2.027   2.027   2.027   2.027   2.027   2.027   2.027   2.027   2.027   2.027   2.027   2.027   2.027   2.027   2.027   2.027
    72.94    2.027   2.027   2.027   2.027   2.027   2.027   2.027   2.027   2.027   2.027   2.027   2.027   2.027   2.027   2.027   2.027   2.027   2.027   2.027   2.027   2.027   2.027   2.027   2.027   2.027   2.027
    70.98    2.027   2.027   2.027   2.027   2.027   2.027   2.027   2.027   2.027   2.027   2.027   2.027   2.027   2.027   2.027   2.027   2.027   2.027   2.027   2.027   2.027   2.027   2.027   2.027   2.027   2.027
    69.02    2.027   2.027   2.027   2.027   2.027   2.027   2.027   2.027   2.027   2.027   2.027   2.027   2.027   2.027   2.027   2.027   2.027   2.027   2.027   2.027   2.027   2.027   2.027   2.027   2.027   2.027
    67.05    2.027   2.027   2.027   2.027   2.027   2.027   2.027   2.027   2.027   2.027   2.027   2.027   2.027   2.027   2.027   2.027   2.027   2.027   2.027   2.027   2.027   2.027   2.027   2.027   2.027   2.027
    65.09    2.027   2.027   2.027   2.027   2.027   2.027   2.027   2.027   2.027   2.027   2.027   2.027   2.027   2.027   2.027   2.027   2.027   2.027   2.027   2.027   2.027   2.027   2.027   2.027   2.027   2.027
    63.13    2.027   2.027   2.027   2.027   2.027   2.027   2.027   2.027   2.027   2.027   2.027   2.027   2.027   2.027   2.027   2.027   2.027   2.027   2.027   2.027   2.027   2.027   2.027   2.027   2.027   2.027
    61.17    2.027   2.027   2.027   2.027   2.027   2.027   2.027   2.027   2.027   2.027   2.027   2.027   2.027   2.027   2.027   2.027   2.027   2.027   2.027   2.027   2.027   2.027   2.027   2.027   2.027   2.027
    59.20    2.027   2.027   2.027   2.027   2.027   2.027   2.027   2.027   2.027   2.027   2.027   2.027   2.027   2.027   2.027   2.027   2.027   2.027   2.027   2.027   2.027   2.027   2.027   2.027   2.027   2.027
    57.24    2.027   2.027   2.027   2.027   2.027   2.027   2.027   2.027   2.027   2.027   2.027   2.027   2.027   2.027   2.027   2.027   2.027   2.027   2.027   2.027   2.027   2.027   2.027   2.027   2.027   2.027
    55.28    2.027   2.027   2.027   2.027   2.027   2.027   2.027   2.027   2.027   2.027   2.027   2.027   2.027   2.027   2.027   2.027   2.027   2.027   2.027   2.027   2.027   2.027   2.027   2.027   2.027   2.027
    53.32    2.027   2.027   2.027   2.027   2.027   2.027   2.027   2.027   2.027   2.027   2.027   2.027   2.027   2.027   2.027   2.027   2.027   2.027   2.027   2.027   2.027   2.027   2.027   2.027   2.027   2.027
    51.35    2.027   2.027   2.027   2.027   2.027   2.027   2.027   2.027   2.027   2.027   2.027   2.027   2.027   2.027   2.027   2.027   2.027   2.027   2.027   2.027   2.027   2.027   2.027   2.027   2.027   2.027
    49.39    2.027   2.027   2.027   2.027   2.027   2.027   2.027   2.027   2.027   2.027   2.027   2.027   2.027   2.027   2.027   2.027   2.027   2.027   2.027   2.027   2.027   2.027   2.027   2.027   2.027   2.027
    47.43    2.027   2.027   2.027   2.027   2.027   2.027   2.027   2.027   2.027   2.027   2.027   2.027   2.027   2.027   2.027   2.027   2.027   2.027   2.027   2.027   2.027   2.027   2.027   2.027   2.027   2.027
    45.47    2.027   2.027   2.027   2.027   2.027   2.027   2.027   2.027   2.027   2.027   2.027   2.027   2.027   2.027   2.027   2.027   2.027   2.027   2.027   2.027   2.027   2.027   2.027   2.027   2.027   2.027
    43.50    2.027   2.027   2.027   2.027   2.027   2.027   2.027   2.027   2.027   2.027   2.027   2.027   2.027   2.027   2.027   2.027   2.027   2.027   2.027   2.027   2.027   2.027   2.027   2.027   2.027   2.027
    41.54    2.027   2.027   2.027   2.027   2.027   2.027   2.027   2.027   2.027   2.027   2.027   2.027   2.027   2.027   2.027   2.027   2.027   2.027   2.027   2.027   2.027   2.027   2.027   2.027   2.027   2.027
    39.58    2.027   2.027   2.027   2.027   2.027   2.027   2.027   2.027   2.027   2.027   2.027   2.027   2.027   2.027   2.027   2.027   2.027   2.027   2.027   2.027   2.027   2.027   2.027   2.027   2.027   2.027
    37.62    2.027   2.027   2.027   2.027   2.027   2.027   2.027   2.027   2.027   2.027   2.027   2.027   2.027   2.027   2.027   2.027   2.027   2.027   2.027   2.027   2.027   2.027   2.027   2.027   2.027   2.027
    35.65    2.027   2.027   2.027   2.027   2.027   2.027   2.027   2.027   2.027   2.027   2.027   2.027   2.027   2.027   2.027   2.027   2.027   2.027   2.027   2.027   2.027   2.027   2.027   2.027   2.027   2.027
    33.69    2.027   2.027   2.027   2.027   2.027   2.027   2.027   2.027   2.027   2.027   2.027   2.027   2.027   2.027   2.027   2.027   2.027   2.027   2.027   2.027   2.027   2.027   2.027   2.027   2.027   2.027
    31.73    2.027   2.027   2.027   2.027   2.027   2.027   2.027   2.027   2.027   2.027   2.027   2.027   2.027   2.027   2.027   2.027   2.027   2.027   2.027   2.027   2.027   2.027   2.027   2.027   2.027   2.027
    29.77    2.027   2.027   2.027   2.027   2.027   2.027   2.027   2.027   2.027   2.027   2.027   2.027   2.027   2.027   2.027   2.027   2.027   2.027   2.027   2.027   2.027   2.027   2.027   2.027   2.027   2.027
    27.80    2.027   2.027   2.027   2.027   2.027   2.027   2.027   2.027   2.027   2.027   2.027   2.027   2.027   2.027   2.027   2.027   2.027   2.027   2.027   2.027   2.027   2.027   2.027   2.027   2.027   2.027
    25.84    2.027   2.027   2.027   2.027   2.027   2.027   2.027   2.027   2.027   2.027   2.027   2.027   2.027   2.027   2.027   2.027   2.027   2.027   2.027   2.027   2.027   2.027   2.027   2.027   2.027   2.027
    23.88    2.027   2.027   2.027   2.027   2.027   2.027   2.027   2.027   2.027   2.027   2.027   2.027   2.027   2.027   2.027   2.027   2.027   2.027   2.027   2.027   2.027   2.027   2.027   2.027   2.027   2.027
    21.92    2.027   2.027   2.027   2.027   2.027   2.027   2.027   2.027   2.027   2.027   2.027   2.027   2.027   2.027   2.027   2.027   2.027   2.027   2.027   2.027   2.027   2.027   2.027   2.027   2.027   2.027
    19.95    2.027   2.027   2.027   2.027   2.027   2.027   2.027   2.027   2.027   2.027   2.027   2.027   2.027   2.027   2.027   2.027   2.027   2.027   2.027   2.027   2.027   2.027   2.027   2.027   2.027   2.027
    17.99    2.027   2.027   2.027   2.027   2.027   2.027   2.027   2.027   2.027   2.027   2.027   2.027   2.027   2.027   2.027   2.027   2.027   2.027   2.027   2.027   2.027   2.027   2.027   2.027   2.027   2.027
    16.03    2.027   2.027   2.027   2.027   2.027   2.027   2.027   2.027   2.027   2.027   2.027   2.027   2.027   2.027   2.027   2.027   2.027   2.027   2.027   2.027   2.027   2.027   2.027   2.027   2.027   2.027
    14.06    2.027   2.027   2.027   2.027   2.027   2.027   2.027   2.027   2.027   2.027   2.027   2.027   2.027   2.027   2.027   2.027   2.027   2.027   2.027   2.027   2.027   2.027   2.027   2.027   2.027   2.027
    12.10    2.027   2.027   2.027   2.027   2.027   2.027   2.027   2.027   2.027   2.027   2.027   2.027   2.027   2.027   2.027   2.027   2.027   2.027   2.027   2.027   2.027   2.027   2.027   2.027   2.027   2.027

   Height   Standard deviation at grid points for the w component:
    84.72    1.390   1.390   1.390   1.390   1.390   1.390   1.390   1.390   1.390   1.390   1.390   1.390   1.390   1.390   1.390   1.390   1.390   1.390   1.390   1.390   1.390   1.390   1.390   1.390   1.390   1.390
    82.75    1.390   1.390   1.390   1.390   1.390   1.390   1.390   1.390   1.390   1.390   1.390   1.390   1.390   1.390   1.390   1.390   1.390   1.390   1.390   1.390   1.390   1.390   1.390   1.390   1.390   1.390
    80.79    1.390   1.390   1.390   1.390   1.390   1.390   1.390   1.390   1.390   1.390   1.390   1.390   1.390   1.390   1.390   1.390   1.390   1.390   1.390   1.390   1.390   1.390   1.390   1.390   1.390   1.390
    78.83    1.390   1.390   1.390   1.390   1.390   1.390   1.390   1.390   1.390   1.390   1.390   1.390   1.390   1.390   1.390   1.390   1.390   1.390   1.390   1.390   1.390   1.390   1.390   1.390   1.390   1.390
    76.87    1.390   1.390   1.390   1.390   1.390   1.390   1.390   1.390   1.390   1.390   1.390   1.390   1.390   1.390   1.390   1.390   1.390   1.390   1.390   1.390   1.390   1.390   1.390   1.390   1.390   1.390
    74.90    1.390   1.390   1.390   1.390   1.390   1.390   1.390   1.390   1.390   1.390   1.390   1.390   1.390   1.390   1.390   1.390   1.390   1.390   1.390   1.390   1.390   1.390   1.390   1.390   1.390   1.390
    72.94    1.390   1.390   1.390   1.390   1.390   1.390   1.390   1.390   1.390   1.390   1.390   1.390   1.390   1.390   1.390   1.390   1.390   1.390   1.390   1.390   1.390   1.390   1.390   1.390   1.390   1.390
    70.98    1.390   1.390   1.390   1.390   1.390   1.390   1.390   1.390   1.390   1.390   1.390   1.390   1.390   1.390   1.390   1.390   1.390   1.390   1.390   1.390   1.390   1.390   1.390   1.390   1.390   1.390
    69.02    1.390   1.390   1.390   1.390   1.390   1.390   1.390   1.390   1.390   1.390   1.390   1.390   1.390   1.390   1.390   1.390   1.390   1.390   1.390   1.390   1.390   1.390   1.390   1.390   1.390   1.390
    67.05    1.390   1.390   1.390   1.390   1.390   1.390   1.390   1.390   1.390   1.390   1.390   1.390   1.390   1.390   1.390   1.390   1.390   1.390   1.390   1.390   1.390   1.390   1.390   1.390   1.390   1.390
    65.09    1.390   1.390   1.390   1.390   1.390   1.390   1.390   1.390   1.390   1.390   1.390   1.390   1.390   1.390   1.390   1.390   1.390   1.390   1.390   1.390   1.390   1.390   1.390   1.390   1.390   1.390
    63.13    1.390   1.390   1.390   1.390   1.390   1.390   1.390   1.390   1.390   1.390   1.390   1.390   1.390   1.390   1.390   1.390   1.390   1.390   1.390   1.390   1.390   1.390   1.390   1.390   1.390   1.390
    61.17    1.390   1.390   1.390   1.390   1.390   1.390   1.390   1.390   1.390   1.390   1.390   1.390   1.390   1.390   1.390   1.390   1.390   1.390   1.390   1.390   1.390   1.390   1.390   1.390   1.390   1.390
    59.20    1.390   1.390   1.390   1.390   1.390   1.390   1.390   1.390   1.390   1.390   1.390   1.390   1.390   1.390   1.390   1.390   1.390   1.390   1.390   1.390   1.390   1.390   1.390   1.390   1.390   1.390
    57.24    1.390   1.390   1.390   1.390   1.390   1.390   1.390   1.390   1.390   1.390   1.390   1.390   1.390   1.390   1.390   1.390   1.390   1.390   1.390   1.390   1.390   1.390   1.390   1.390   1.390   1.390
    55.28    1.390   1.390   1.390   1.390   1.390   1.390   1.390   1.390   1.390   1.390   1.390   1.390   1.390   1.390   1.390   1.390   1.390   1.390   1.390   1.390   1.390   1.390   1.390   1.390   1.390   1.390
    53.32    1.390   1.390   1.390   1.390   1.390   1.390   1.390   1.390   1.390   1.390   1.390   1.390   1.390   1.390   1.390   1.390   1.390   1.390   1.390   1.390   1.390   1.390   1.390   1.390   1.390   1.390
    51.35    1.390   1.390   1.390   1.390   1.390   1.390   1.390   1.390   1.390   1.390   1.390   1.390   1.390   1.390   1.390   1.390   1.390   1.390   1.390   1.390   1.390   1.390   1.390   1.390   1.390   1.390
    49.39    1.390   1.390   1.390   1.390   1.390   1.390   1.390   1.390   1.390   1.390   1.390   1.390   1.390   1.390   1.390   1.390   1.390   1.390   1.390   1.390   1.390   1.390   1.390   1.390   1.390   1.390
    47.43    1.390   1.390   1.390   1.390   1.390   1.390   1.390   1.390   1.390   1.390   1.390   1.390   1.390   1.390   1.390   1.390   1.390   1.390   1.390   1.390   1.390   1.390   1.390   1.390   1.390   1.390
    45.47    1.390   1.390   1.390   1.390   1.390   1.390   1.390   1.390   1.390   1.390   1.390   1.390   1.390   1.390   1.390   1.390   1.390   1.390   1.390   1.390   1.390   1.390   1.390   1.390   1.390   1.390
    43.50    1.390   1.390   1.390   1.390   1.390   1.390   1.390   1.390   1.390   1.390   1.390   1.390   1.390   1.390   1.390   1.390   1.390   1.390   1.390   1.390   1.390   1.390   1.390   1.390   1.390   1.390
    41.54    1.390   1.390   1.390   1.390   1.390   1.390   1.390   1.390   1.390   1.390   1.390   1.390   1.390   1.390   1.390   1.390   1.390   1.390   1.390   1.390   1.390   1.390   1.390   1.390   1.390   1.390
    39.58    1.390   1.390   1.390   1.390   1.390   1.390   1.390   1.390   1.390   1.390   1.390   1.390   1.390   1.390   1.390   1.390   1.390   1.390   1.390   1.390   1.390   1.390   1.390   1.390   1.390   1.390
    37.62    1.390   1.390   1.390   1.390   1.390   1.390   1.390   1.390   1.390   1.390   1.390   1.390   1.390   1.390   1.390   1.390   1.390   1.390   1.390   1.390   1.390   1.390   1.390   1.390   1.390   1.390
    35.65    1.390   1.390   1.390   1.390   1.390   1.390   1.390   1.390   1.390   1.390   1.390   1.390   1.390   1.390   1.390   1.390   1.390   1.390   1.390   1.390   1.390   1.390   1.390   1.390   1.390   1.390
    33.69    1.390   1.390   1.390   1.390   1.390   1.390   1.390   1.390   1.390   1.390   1.390   1.390   1.390   1.390   1.390   1.390   1.390   1.390   1.390   1.390   1.390   1.390   1.390   1.390   1.390   1.390
    31.73    1.390   1.390   1.390   1.390   1.390   1.390   1.390   1.390   1.390   1.390   1.390   1.390   1.390   1.390   1.390   1.390   1.390   1.390   1.390   1.390   1.390   1.390   1.390   1.390   1.390   1.390
    29.77    1.390   1.390   1.390   1.390   1.390   1.390   1.390   1.390   1.390   1.390   1.390   1.390   1.390   1.390   1.390   1.390   1.390   1.390   1.390   1.390   1.390   1.390   1.390   1.390   1.390   1.390
    27.80    1.390   1.390   1.390   1.390   1.390   1.390   1.390   1.390   1.390   1.390   1.390   1.390   1.390   1.390   1.390   1.390   1.390   1.390   1.390   1.390   1.390   1.390   1.390   1.390   1.390   1.390
    25.84    1.390   1.390   1.390   1.390   1.390   1.390   1.390   1.390   1.390   1.390   1.390   1.390   1.390   1.390   1.390   1.390   1.390   1.390   1.390   1.390   1.390   1.390   1.390   1.390   1.390   1.390
    23.88    1.390   1.390   1.390   1.390   1.390   1.390   1.390   1.390   1.390   1.390   1.390   1.390   1.390   1.390   1.390   1.390   1.390   1.390   1.390   1.390   1.390   1.390   1.390   1.390   1.390   1.390
    21.92    1.390   1.390   1.390   1.390   1.390   1.390   1.390   1.390   1.390   1.390   1.390   1.390   1.390   1.390   1.390   1.390   1.390   1.390   1.390   1.390   1.390   1.390   1.390   1.390   1.390   1.390
    19.95    1.390   1.390   1.390   1.390   1.390   1.390   1.390   1.390   1.390   1.390   1.390   1.390   1.390   1.390   1.390   1.390   1.390   1.390   1.390   1.390   1.390   1.390   1.390   1.390   1.390   1.390
    17.99    1.390   1.390   1.390   1.390   1.390   1.390   1.390   1.390   1.390   1.390   1.390   1.390   1.390   1.390   1.390   1.390   1.390   1.390   1.390   1.390   1.390   1.390   1.390   1.390   1.390   1.390
    16.03    1.390   1.390   1.390   1.390   1.390   1.390   1.390   1.390   1.390   1.390   1.390   1.390   1.390   1.390   1.390   1.390   1.390   1.390   1.390   1.390   1.390   1.390   1.390   1.390   1.390   1.390
    14.06    1.390   1.390   1.390   1.390   1.390   1.390   1.390   1.390   1.390   1.390   1.390   1.390   1.390   1.390   1.390   1.390   1.390   1.390   1.390   1.390   1.390   1.390   1.390   1.390   1.390   1.390
    12.10    1.390   1.390   1.390   1.390   1.390   1.390   1.390   1.390   1.390   1.390   1.390   1.390   1.390   1.390   1.390   1.390   1.390   1.390   1.390   1.390   1.390   1.390   1.390   1.390   1.390   1.390

   Mean standard deviation across all grid points:
      u component:    2.101 m/s
      v component:    2.027 m/s
      w component:    1.390 m/s


U-component (X) statistics from the interpolated hub point:

   Mean =  17.4400 m/s
   TI   =   8.8494 %


Processing complete.  24.337 CPU seconds used.
