
This summary file was generated by TurbSim (from OpenFAST-v2.5.0-3490-g24c05a74) on 22-Nov-2024 at 22:52:24.


Runtime Options:

     40071  Random seed #1
    RANLUX  Type of random number generator
         F  Output binary HH turbulence parameters?
         F  Output formatted turbulence parameters?
         F  Output AeroDyn HH files?
         T  Output AeroDyn FF files?
         F  Output BLADED FF files?
         F  Output tower data?
         F  Output HAWC FF files?
         F  Output formatted FF files?
         T  Output coherent turbulence time step file?
 0 -  NONE  IEC turbulence models scaled to exact specified standard deviation


Turbine/Model Specifications:

        38  Vertical grid-point matrix dimension
        26  Horizontal grid-point matrix dimension
     0.050  Time step [seconds]
   600.000  Analysis time [seconds]
   600.000  Usable output time [seconds]
    55.000  Hub height [m]
    82.500  Grid height [m]
   118.825  Grid width [m]
     0.000  Vertical flow angle [degrees]
     0.000  Horizontal flow angle [degrees]


Meteorological Boundary Conditions:

    IECKAI  IEC Kaimal spectral model
         1  IEC standard: IEC 61400-1 Ed. 3: 2005
         A  IEC turbulence characteristic
       NTM  IEC Normal Turbulence Model
       N/A  IEC Extreme Turbulence Model (ETM) "c" parameter [m/s]
       PL   Wind profile type
    55.000  Reference height [m]
     5.000  Reference wind speed [m/s]
       N/A  Jet height [m]
     0.200  Power law exponent
     0.030  Surface roughness length [m]


Non-IEC Meteorological Boundary Conditions:

       N/A  Site latitude [degrees]
       N/A  Gradient Richardson number
       N/A  Friction or shear velocity [m/s]
       N/A  Mixing layer depth [m]
       N/A  Mean hub u'w' Reynolds stress
       N/A  Mean hub u'v' Reynolds stress
       N/A  Mean hub v'w' Reynolds stress


Spatial Coherence Models:

       IEC  u-component coherence model
      NONE  v-component coherence model
      NONE  w-component coherence model
(   12.000, 0.385E-03)  u-component coherence parameters
                   N/A  v-component coherence parameters
                   N/A  w-component coherence parameters
       N/A  Coherence exponent


You have requested that the following file(s) be generated:

   ./turbsimfiles/DLC1_1Vinf05.0.bts (AeroDyn/TurbSim full-field wind file)


Turbulence Simulation Scaling Parameter Summary:

   Turbulence model used                            =  IEC Kaimal
   Turbulence characteristic                        =  A
   IEC turbulence type                              =  Normal Turbulence Model
   IEC standard                                     =  IEC 61400-1 Ed. 3: 2005
   Mean wind speed at hub height                    =    5.000 m/s
   Expected value of turbulence intensity at 15 m/s =   16.000%
   Characteristic value of standard deviation       =    1.496 m/s
   Turbulence scale                                 =   38.500 m
   u-component integral scale                       =  311.850 m
   Coherency scale                                  =  311.850 m
   Characteristic value of hub turbulence intensity =   29.920%
   Gradient Richardson number                       =    0.000

   Wind profile type                                =  Power law
   Power law exponent                               =    0.200
   Mean shear across rotor disk                     =    0.022 (m/s)/m
   Assumed rotor diameter                           =   82.500 m
   Surface roughness length                         =    0.030 m

   Nyquist frequency of turbulent wind field        =   10.000 Hz

   Number of time steps in the FFT                  =    12000
   Number of time steps output                      =    12000
   Number of points simulated                       =      989


Mean Flow Angles:

   Vertical   =   0.0 degrees
   Horizontal =   0.0 degrees

Mean Wind Speed Profile:

   Height    Wind Speed   Horizontal Angle  Vertical Angle  U-comp (X)   V-comp (Y)   W-comp (Z)
     (m)        (m/s)         (degrees)       (degrees)       (m/s)        (m/s)        (m/s)   
   ------    ----------   ----------------  --------------  ----------   ----------   ----------
     96.2        5.59            0.00            0.00          5.59         0.00         0.00
     94.0        5.57            0.00            0.00          5.57         0.00         0.00
     91.8        5.54            0.00            0.00          5.54         0.00         0.00
     89.6        5.51            0.00            0.00          5.51         0.00         0.00
     87.3        5.48            0.00            0.00          5.48         0.00         0.00
     85.1        5.46            0.00            0.00          5.46         0.00         0.00
     82.9        5.43            0.00            0.00          5.43         0.00         0.00
     80.6        5.40            0.00            0.00          5.40         0.00         0.00
     78.4        5.37            0.00            0.00          5.37         0.00         0.00
     76.2        5.34            0.00            0.00          5.34         0.00         0.00
     74.0        5.31            0.00            0.00          5.31         0.00         0.00
     71.7        5.27            0.00            0.00          5.27         0.00         0.00
     69.5        5.24            0.00            0.00          5.24         0.00         0.00
     67.3        5.21            0.00            0.00          5.21         0.00         0.00
     65.0        5.17            0.00            0.00          5.17         0.00         0.00
     62.8        5.13            0.00            0.00          5.13         0.00         0.00
     60.6        5.10            0.00            0.00          5.10         0.00         0.00
     58.3        5.06            0.00            0.00          5.06         0.00         0.00
     56.1        5.02            0.00            0.00          5.02         0.00         0.00
     55.0        5.00            0.00            0.00          5.00         0.00         0.00
     53.9        4.98            0.00            0.00          4.98         0.00         0.00
     51.7        4.94            0.00            0.00          4.94         0.00         0.00
     49.4        4.89            0.00            0.00          4.89         0.00         0.00
     47.2        4.85            0.00            0.00          4.85         0.00         0.00
     45.0        4.80            0.00            0.00          4.80         0.00         0.00
     42.7        4.75            0.00            0.00          4.75         0.00         0.00
     40.5        4.70            0.00            0.00          4.70         0.00         0.00
     38.3        4.65            0.00            0.00          4.65         0.00         0.00
     36.0        4.59            0.00            0.00          4.59         0.00         0.00
     33.8        4.54            0.00            0.00          4.54         0.00         0.00
     31.6        4.48            0.00            0.00          4.48         0.00         0.00
     29.4        4.41            0.00            0.00          4.41         0.00         0.00
     27.1        4.34            0.00            0.00          4.34         0.00         0.00
     24.9        4.27            0.00            0.00          4.27         0.00         0.00
     22.7        4.19            0.00            0.00          4.19         0.00         0.00
     20.4        4.10            0.00            0.00          4.10         0.00         0.00
     18.2        4.01            0.00            0.00          4.01         0.00         0.00
     16.0        3.90            0.00            0.00          3.90         0.00         0.00
     13.8        3.79            0.00            0.00          3.79         0.00         0.00


Harvested Random Seeds after Generation of the Random Numbers:

    165410250 K 1
            0 K 2


Hub-Height Simulated Turbulence Statistical Summary:

   Type of Wind        Min (m/s)   Mean (m/s)    Max (m/s)  Sigma (m/s)       TI (%)
   ----------------    ---------   ----------    ---------  -----------       ------
   Longitudinal (u)         2.01         5.00        10.43        1.473       29.461
   Lateral (v)             -3.56         0.00         4.04        1.152       23.034
   Vertical (w)            -2.39        -0.00         2.86        0.733       14.667
   U component              2.01         5.00        10.43        1.473       29.461
   V component             -3.56         0.00         4.04        1.152       23.034
   W component             -2.39        -0.00         2.86        0.733       14.667
   Horizontal (U&V)         2.07         5.14        10.44        1.434       27.897
   Total                    2.14         5.20        10.44        1.421       27.330

                       Min Reynolds     Mean Reynolds    Max Reynolds    Correlation
   Product             Stress (m/s)^2   Stress (m/s)^2   Stress (m/s)^2  Coefficient
   ----------------    --------------   --------------   --------------  -----------
   u'w'                     -6.407            -0.016             6.695        -0.015
   u'v'                    -11.554            -0.009             7.272        -0.006
   v'w'                     -4.512            -0.057             4.744        -0.067


   Friction Velocity (Ustar)  =      0.126 m/s
   Maximum Instantaneous TKE  =     14.781 (m/s)^2
   Maximum Instantaneous CTKE =      5.777 (m/s)^2


Grid Point Variance Summary:

   Y-coord  -59.41  -54.66  -49.91  -45.15  -40.40  -35.65  -30.89  -26.14  -21.39  -16.64  -11.88   -7.13   -2.38    2.38    7.13   11.88   16.64   21.39   26.14   30.89   35.65   40.40   45.15   49.91   54.66   59.41

   Height   Standard deviation at grid points for the u component:
    96.25    1.340   1.416   1.464   1.411   1.418   1.443   1.325   1.283   1.340   1.327   1.281   1.265   1.177   1.331   1.251   1.282   1.309   1.290   1.336   1.400   1.418   1.426   1.392   1.271   1.354   1.257
    94.02    1.296   1.426   1.418   1.414   1.394   1.477   1.364   1.346   1.323   1.276   1.247   1.386   1.252   1.332   1.321   1.315   1.285   1.251   1.374   1.359   1.404   1.371   1.303   1.186   1.343   1.246
    91.79    1.374   1.468   1.442   1.491   1.432   1.394   1.416   1.364   1.436   1.308   1.339   1.373   1.324   1.423   1.406   1.324   1.319   1.270   1.309   1.253   1.366   1.292   1.231   1.313   1.285   1.392
    89.56    1.376   1.385   1.424   1.440   1.443   1.375   1.279   1.325   1.377   1.344   1.418   1.392   1.336   1.376   1.370   1.235   1.308   1.245   1.295   1.227   1.245   1.255   1.228   1.216   1.295   1.459
    87.33    1.318   1.385   1.335   1.508   1.378   1.311   1.261   1.271   1.339   1.339   1.393   1.322   1.462   1.440   1.410   1.266   1.283   1.235   1.224   1.201   1.245   1.271   1.174   1.211   1.332   1.452
    85.10    1.297   1.308   1.299   1.338   1.335   1.362   1.376   1.234   1.285   1.314   1.315   1.302   1.522   1.374   1.371   1.320   1.296   1.164   1.252   1.187   1.250   1.197   1.191   1.238   1.443   1.548
    82.87    1.258   1.264   1.239   1.159   1.323   1.352   1.275   1.227   1.239   1.289   1.400   1.363   1.446   1.438   1.386   1.345   1.306   1.166   1.277   1.207   1.180   1.122   1.170   1.268   1.388   1.509
    80.64    1.252   1.293   1.171   1.181   1.313   1.273   1.261   1.281   1.136   1.337   1.374   1.438   1.437   1.451   1.398   1.369   1.235   1.114   1.153   1.223   1.171   1.229   1.259   1.223   1.339   1.462
    78.41    1.189   1.292   1.228   1.157   1.242   1.252   1.236   1.190   1.197   1.316   1.232   1.372   1.372   1.404   1.343   1.364   1.231   1.136   1.097   1.177   1.126   1.159   1.321   1.272   1.271   1.408
    76.18    1.217   1.259   1.187   1.262   1.170   1.324   1.276   1.216   1.307   1.321   1.248   1.274   1.302   1.387   1.289   1.343   1.131   1.123   1.142   1.112   1.147   1.227   1.277   1.328   1.251   1.385
    73.95    1.170   1.211   1.195   1.230   1.190   1.307   1.198   1.259   1.338   1.291   1.152   1.209   1.307   1.336   1.258   1.221   1.227   1.121   1.162   1.104   1.122   1.232   1.350   1.316   1.322   1.349
    71.72    1.176   1.247   1.244   1.193   1.152   1.293   1.219   1.275   1.274   1.333   1.241   1.304   1.307   1.397   1.356   1.154   1.177   1.101   1.178   1.116   1.126   1.307   1.244   1.245   1.303   1.400
    69.49    1.115   1.140   1.205   1.183   1.178   1.157   1.193   1.292   1.353   1.394   1.172   1.285   1.363   1.490   1.332   1.160   1.166   1.139   1.108   1.064   1.169   1.251   1.266   1.239   1.328   1.332
    67.26    1.186   1.176   1.215   1.173   1.205   1.085   1.200   1.218   1.243   1.387   1.271   1.323   1.415   1.429   1.394   1.190   1.213   1.092   1.093   1.067   1.215   1.218   1.290   1.277   1.348   1.346
    65.03    1.102   1.185   1.106   1.115   1.103   1.077   1.091   1.215   1.210   1.332   1.243   1.268   1.391   1.421   1.397   1.216   1.207   1.053   1.166   1.200   1.209   1.288   1.310   1.417   1.355   1.356
    62.80    1.158   1.204   1.037   1.106   0.989   1.078   1.025   1.211   1.222   1.281   1.146   1.307   1.412   1.430   1.372   1.295   1.180   1.054   1.122   1.175   1.279   1.260   1.336   1.413   1.407   1.321
    60.57    1.149   1.119   1.097   0.964   0.918   1.049   1.094   1.260   1.228   1.237   1.223   1.293   1.352   1.383   1.384   1.277   1.139   1.102   1.099   1.202   1.242   1.217   1.320   1.413   1.452   1.254
    58.34    1.180   1.148   1.076   0.967   0.912   1.004   1.143   1.252   1.185   1.232   1.116   1.249   1.311   1.406   1.413   1.289   1.140   1.151   1.078   1.249   1.300   1.332   1.388   1.483   1.457   1.303
    56.11    1.153   1.149   1.066   1.000   0.961   1.065   1.211   1.330   1.207   1.205   1.206   1.255   1.422   1.417   1.418   1.308   1.140   1.141   1.158   1.240   1.261   1.351   1.467   1.513   1.427   1.257
    53.89    1.091   1.041   1.030   0.975   1.067   1.162   1.164   1.298   1.182   1.233   1.352   1.356   1.388   1.439   1.388   1.315   1.132   1.163   1.176   1.217   1.257   1.341   1.404   1.433   1.367   1.137
    51.66    1.049   0.998   0.990   0.965   1.071   1.206   1.231   1.295   1.225   1.249   1.331   1.389   1.453   1.454   1.410   1.276   1.139   1.127   1.209   1.265   1.265   1.360   1.465   1.435   1.433   1.131
    49.43    1.049   0.962   0.957   0.978   1.058   1.191   1.192   1.217   1.179   1.304   1.413   1.529   1.444   1.473   1.359   1.206   1.151   1.105   1.183   1.230   1.166   1.330   1.472   1.478   1.325   1.231
    47.20    1.070   1.050   1.015   1.000   1.061   1.104   1.191   1.223   1.279   1.371   1.421   1.513   1.412   1.404   1.387   1.221   1.192   1.165   1.273   1.282   1.185   1.382   1.507   1.521   1.362   1.204
    44.97    1.073   0.994   1.002   0.990   0.998   1.085   1.139   1.239   1.301   1.337   1.428   1.443   1.434   1.396   1.323   1.258   1.242   1.256   1.305   1.281   1.312   1.445   1.486   1.522   1.429   1.183
    42.74    1.010   0.980   0.968   0.906   0.934   1.099   1.157   1.197   1.346   1.290   1.346   1.335   1.505   1.510   1.357   1.380   1.260   1.313   1.297   1.259   1.341   1.377   1.531   1.541   1.455   1.278
    40.51    0.992   1.000   0.992   0.887   0.915   1.072   1.165   1.195   1.301   1.355   1.368   1.405   1.476   1.547   1.381   1.320   1.340   1.294   1.258   1.289   1.313   1.302   1.402   1.538   1.474   1.356
    38.28    1.036   0.993   0.967   0.893   0.952   1.052   1.138   1.190   1.181   1.250   1.338   1.388   1.438   1.502   1.393   1.301   1.358   1.348   1.331   1.245   1.221   1.205   1.385   1.399   1.422   1.285
    36.05    1.046   0.946   0.930   0.980   1.005   1.038   1.094   1.112   1.113   1.244   1.264   1.355   1.402   1.540   1.476   1.355   1.395   1.323   1.307   1.243   1.196   1.224   1.365   1.459   1.424   1.225
    33.82    1.082   0.940   0.938   0.977   1.086   1.045   1.036   1.158   1.156   1.205   1.165   1.336   1.396   1.447   1.490   1.330   1.311   1.243   1.231   1.201   1.280   1.231   1.371   1.428   1.314   1.252
    31.59    1.040   0.988   0.990   0.972   1.048   1.069   1.029   1.145   1.125   1.228   1.226   1.363   1.384   1.443   1.362   1.345   1.320   1.214   1.207   1.183   1.241   1.230   1.296   1.446   1.373   1.262
    29.36    1.046   1.019   1.105   1.116   1.149   1.176   1.120   1.131   1.179   1.192   1.286   1.319   1.299   1.425   1.359   1.296   1.210   1.139   1.172   1.213   1.202   1.283   1.345   1.396   1.346   1.226
    27.13    1.016   0.988   1.144   1.161   1.214   1.174   1.103   1.139   1.207   1.205   1.320   1.296   1.269   1.417   1.446   1.230   1.182   1.167   1.240   1.215   1.134   1.277   1.309   1.345   1.276   1.183
    24.90    1.040   0.994   1.125   1.192   1.262   1.193   1.148   1.063   1.136   1.179   1.292   1.368   1.385   1.318   1.361   1.198   1.163   1.210   1.246   1.266   1.251   1.384   1.383   1.269   1.234   1.137
    22.67    1.043   1.115   1.197   1.201   1.312   1.229   1.127   1.039   1.195   1.205   1.307   1.385   1.282   1.332   1.327   1.213   1.181   1.152   1.373   1.266   1.277   1.357   1.316   1.165   1.224   1.222
    20.44    1.164   1.218   1.293   1.270   1.307   1.216   1.174   1.079   1.212   1.218   1.281   1.376   1.320   1.306   1.323   1.252   1.200   1.228   1.280   1.344   1.322   1.263   1.343   1.201   1.128   1.212
    18.21    1.221   1.210   1.382   1.304   1.406   1.339   1.219   1.154   1.285   1.310   1.202   1.372   1.306   1.269   1.303   1.209   1.267   1.268   1.308   1.273   1.327   1.357   1.259   1.230   1.114   1.119
    15.98    1.268   1.274   1.352   1.396   1.427   1.343   1.207   1.209   1.294   1.246   1.258   1.331   1.431   1.285   1.257   1.273   1.280   1.262   1.354   1.349   1.331   1.287   1.209   1.269   1.061   1.122
    13.75    1.356   1.340   1.414   1.372   1.467   1.444   1.229   1.329   1.402   1.349   1.261   1.403   1.360   1.342   1.308   1.196   1.200   1.343   1.339   1.416   1.367   1.250   1.267   1.258   1.134   1.112

   Height   Standard deviation at grid points for the v component:
    96.25    1.152   1.152   1.152   1.152   1.152   1.152   1.152   1.152   1.152   1.152   1.152   1.152   1.152   1.152   1.152   1.152   1.152   1.152   1.152   1.152   1.152   1.152   1.152   1.152   1.152   1.152
    94.02    1.152   1.152   1.152   1.152   1.152   1.152   1.152   1.152   1.152   1.152   1.152   1.152   1.152   1.152   1.152   1.152   1.152   1.152   1.152   1.152   1.152   1.152   1.152   1.152   1.152   1.152
    91.79    1.152   1.152   1.152   1.152   1.152   1.152   1.152   1.152   1.152   1.152   1.152   1.152   1.152   1.152   1.152   1.152   1.152   1.152   1.152   1.152   1.152   1.152   1.152   1.152   1.152   1.152
    89.56    1.152   1.152   1.152   1.152   1.152   1.152   1.152   1.152   1.152   1.152   1.152   1.152   1.152   1.152   1.152   1.152   1.152   1.152   1.152   1.152   1.152   1.152   1.152   1.152   1.152   1.152
    87.33    1.152   1.152   1.152   1.152   1.152   1.152   1.152   1.152   1.152   1.152   1.152   1.152   1.152   1.152   1.152   1.152   1.152   1.152   1.152   1.152   1.152   1.152   1.152   1.152   1.152   1.152
    85.10    1.152   1.152   1.152   1.152   1.152   1.152   1.152   1.152   1.152   1.152   1.152   1.152   1.152   1.152   1.152   1.152   1.152   1.152   1.152   1.152   1.152   1.152   1.152   1.152   1.152   1.152
    82.87    1.152   1.152   1.152   1.152   1.152   1.152   1.152   1.152   1.152   1.152   1.152   1.152   1.152   1.152   1.152   1.152   1.152   1.152   1.152   1.152   1.152   1.152   1.152   1.152   1.152   1.152
    80.64    1.152   1.152   1.152   1.152   1.152   1.152   1.152   1.152   1.152   1.152   1.152   1.152   1.152   1.152   1.152   1.152   1.152   1.152   1.152   1.152   1.152   1.152   1.152   1.152   1.152   1.152
    78.41    1.152   1.152   1.152   1.152   1.152   1.152   1.152   1.152   1.152   1.152   1.152   1.152   1.152   1.152   1.152   1.152   1.152   1.152   1.152   1.152   1.152   1.152   1.152   1.152   1.152   1.152
    76.18    1.152   1.152   1.152   1.152   1.152   1.152   1.152   1.152   1.152   1.152   1.152   1.152   1.152   1.152   1.152   1.152   1.152   1.152   1.152   1.152   1.152   1.152   1.152   1.152   1.152   1.152
    73.95    1.152   1.152   1.152   1.152   1.152   1.152   1.152   1.152   1.152   1.152   1.152   1.152   1.152   1.152   1.152   1.152   1.152   1.152   1.152   1.152   1.152   1.152   1.152   1.152   1.152   1.152
    71.72    1.152   1.152   1.152   1.152   1.152   1.152   1.152   1.152   1.152   1.152   1.152   1.152   1.152   1.152   1.152   1.152   1.152   1.152   1.152   1.152   1.152   1.152   1.152   1.152   1.152   1.152
    69.49    1.152   1.152   1.152   1.152   1.152   1.152   1.152   1.152   1.152   1.152   1.152   1.152   1.152   1.152   1.152   1.152   1.152   1.152   1.152   1.152   1.152   1.152   1.152   1.152   1.152   1.152
    67.26    1.152   1.152   1.152   1.152   1.152   1.152   1.152   1.152   1.152   1.152   1.152   1.152   1.152   1.152   1.152   1.152   1.152   1.152   1.152   1.152   1.152   1.152   1.152   1.152   1.152   1.152
    65.03    1.152   1.152   1.152   1.152   1.152   1.152   1.152   1.152   1.152   1.152   1.152   1.152   1.152   1.152   1.152   1.152   1.152   1.152   1.152   1.152   1.152   1.152   1.152   1.152   1.152   1.152
    62.80    1.152   1.152   1.152   1.152   1.152   1.152   1.152   1.152   1.152   1.152   1.152   1.152   1.152   1.152   1.152   1.152   1.152   1.152   1.152   1.152   1.152   1.152   1.152   1.152   1.152   1.152
    60.57    1.152   1.152   1.152   1.152   1.152   1.152   1.152   1.152   1.152   1.152   1.152   1.152   1.152   1.152   1.152   1.152   1.152   1.152   1.152   1.152   1.152   1.152   1.152   1.152   1.152   1.152
    58.34    1.152   1.152   1.152   1.152   1.152   1.152   1.152   1.152   1.152   1.152   1.152   1.152   1.152   1.152   1.152   1.152   1.152   1.152   1.152   1.152   1.152   1.152   1.152   1.152   1.152   1.152
    56.11    1.152   1.152   1.152   1.152   1.152   1.152   1.152   1.152   1.152   1.152   1.152   1.152   1.152   1.152   1.152   1.152   1.152   1.152   1.152   1.152   1.152   1.152   1.152   1.152   1.152   1.152
    53.89    1.152   1.152   1.152   1.152   1.152   1.152   1.152   1.152   1.152   1.152   1.152   1.152   1.152   1.152   1.152   1.152   1.152   1.152   1.152   1.152   1.152   1.152   1.152   1.152   1.152   1.152
    51.66    1.152   1.152   1.152   1.152   1.152   1.152   1.152   1.152   1.152   1.152   1.152   1.152   1.152   1.152   1.152   1.152   1.152   1.152   1.152   1.152   1.152   1.152   1.152   1.152   1.152   1.152
    49.43    1.152   1.152   1.152   1.152   1.152   1.152   1.152   1.152   1.152   1.152   1.152   1.152   1.152   1.152   1.152   1.152   1.152   1.152   1.152   1.152   1.152   1.152   1.152   1.152   1.152   1.152
    47.20    1.152   1.152   1.152   1.152   1.152   1.152   1.152   1.152   1.152   1.152   1.152   1.152   1.152   1.152   1.152   1.152   1.152   1.152   1.152   1.152   1.152   1.152   1.152   1.152   1.152   1.152
    44.97    1.152   1.152   1.152   1.152   1.152   1.152   1.152   1.152   1.152   1.152   1.152   1.152   1.152   1.152   1.152   1.152   1.152   1.152   1.152   1.152   1.152   1.152   1.152   1.152   1.152   1.152
    42.74    1.152   1.152   1.152   1.152   1.152   1.152   1.152   1.152   1.152   1.152   1.152   1.152   1.152   1.152   1.152   1.152   1.152   1.152   1.152   1.152   1.152   1.152   1.152   1.152   1.152   1.152
    40.51    1.152   1.152   1.152   1.152   1.152   1.152   1.152   1.152   1.152   1.152   1.152   1.152   1.152   1.152   1.152   1.152   1.152   1.152   1.152   1.152   1.152   1.152   1.152   1.152   1.152   1.152
    38.28    1.152   1.152   1.152   1.152   1.152   1.152   1.152   1.152   1.152   1.152   1.152   1.152   1.152   1.152   1.152   1.152   1.152   1.152   1.152   1.152   1.152   1.152   1.152   1.152   1.152   1.152
    36.05    1.152   1.152   1.152   1.152   1.152   1.152   1.152   1.152   1.152   1.152   1.152   1.152   1.152   1.152   1.152   1.152   1.152   1.152   1.152   1.152   1.152   1.152   1.152   1.152   1.152   1.152
    33.82    1.152   1.152   1.152   1.152   1.152   1.152   1.152   1.152   1.152   1.152   1.152   1.152   1.152   1.152   1.152   1.152   1.152   1.152   1.152   1.152   1.152   1.152   1.152   1.152   1.152   1.152
    31.59    1.152   1.152   1.152   1.152   1.152   1.152   1.152   1.152   1.152   1.152   1.152   1.152   1.152   1.152   1.152   1.152   1.152   1.152   1.152   1.152   1.152   1.152   1.152   1.152   1.152   1.152
    29.36    1.152   1.152   1.152   1.152   1.152   1.152   1.152   1.152   1.152   1.152   1.152   1.152   1.152   1.152   1.152   1.152   1.152   1.152   1.152   1.152   1.152   1.152   1.152   1.152   1.152   1.152
    27.13    1.152   1.152   1.152   1.152   1.152   1.152   1.152   1.152   1.152   1.152   1.152   1.152   1.152   1.152   1.152   1.152   1.152   1.152   1.152   1.152   1.152   1.152   1.152   1.152   1.152   1.152
    24.90    1.152   1.152   1.152   1.152   1.152   1.152   1.152   1.152   1.152   1.152   1.152   1.152   1.152   1.152   1.152   1.152   1.152   1.152   1.152   1.152   1.152   1.152   1.152   1.152   1.152   1.152
    22.67    1.152   1.152   1.152   1.152   1.152   1.152   1.152   1.152   1.152   1.152   1.152   1.152   1.152   1.152   1.152   1.152   1.152   1.152   1.152   1.152   1.152   1.152   1.152   1.152   1.152   1.152
    20.44    1.152   1.152   1.152   1.152   1.152   1.152   1.152   1.152   1.152   1.152   1.152   1.152   1.152   1.152   1.152   1.152   1.152   1.152   1.152   1.152   1.152   1.152   1.152   1.152   1.152   1.152
    18.21    1.152   1.152   1.152   1.152   1.152   1.152   1.152   1.152   1.152   1.152   1.152   1.152   1.152   1.152   1.152   1.152   1.152   1.152   1.152   1.152   1.152   1.152   1.152   1.152   1.152   1.152
    15.98    1.152   1.152   1.152   1.152   1.152   1.152   1.152   1.152   1.152   1.152   1.152   1.152   1.152   1.152   1.152   1.152   1.152   1.152   1.152   1.152   1.152   1.152   1.152   1.152   1.152   1.152
    13.75    1.152   1.152   1.152   1.152   1.152   1.152   1.152   1.152   1.152   1.152   1.152   1.152   1.152   1.152   1.152   1.152   1.152   1.152   1.152   1.152   1.152   1.152   1.152   1.152   1.152   1.152

   Height   Standard deviation at grid points for the w component:
    96.25    0.733   0.733   0.733   0.733   0.733   0.733   0.733   0.733   0.733   0.733   0.733   0.733   0.733   0.733   0.733   0.733   0.733   0.733   0.733   0.733   0.733   0.733   0.733   0.733   0.733   0.733
    94.02    0.733   0.733   0.733   0.733   0.733   0.733   0.733   0.733   0.733   0.733   0.733   0.733   0.733   0.733   0.733   0.733   0.733   0.733   0.733   0.733   0.733   0.733   0.733   0.733   0.733   0.733
    91.79    0.733   0.733   0.733   0.733   0.733   0.733   0.733   0.733   0.733   0.733   0.733   0.733   0.733   0.733   0.733   0.733   0.733   0.733   0.733   0.733   0.733   0.733   0.733   0.733   0.733   0.733
    89.56    0.733   0.733   0.733   0.733   0.733   0.733   0.733   0.733   0.733   0.733   0.733   0.733   0.733   0.733   0.733   0.733   0.733   0.733   0.733   0.733   0.733   0.733   0.733   0.733   0.733   0.733
    87.33    0.733   0.733   0.733   0.733   0.733   0.733   0.733   0.733   0.733   0.733   0.733   0.733   0.733   0.733   0.733   0.733   0.733   0.733   0.733   0.733   0.733   0.733   0.733   0.733   0.733   0.733
    85.10    0.733   0.733   0.733   0.733   0.733   0.733   0.733   0.733   0.733   0.733   0.733   0.733   0.733   0.733   0.733   0.733   0.733   0.733   0.733   0.733   0.733   0.733   0.733   0.733   0.733   0.733
    82.87    0.733   0.733   0.733   0.733   0.733   0.733   0.733   0.733   0.733   0.733   0.733   0.733   0.733   0.733   0.733   0.733   0.733   0.733   0.733   0.733   0.733   0.733   0.733   0.733   0.733   0.733
    80.64    0.733   0.733   0.733   0.733   0.733   0.733   0.733   0.733   0.733   0.733   0.733   0.733   0.733   0.733   0.733   0.733   0.733   0.733   0.733   0.733   0.733   0.733   0.733   0.733   0.733   0.733
    78.41    0.733   0.733   0.733   0.733   0.733   0.733   0.733   0.733   0.733   0.733   0.733   0.733   0.733   0.733   0.733   0.733   0.733   0.733   0.733   0.733   0.733   0.733   0.733   0.733   0.733   0.733
    76.18    0.733   0.733   0.733   0.733   0.733   0.733   0.733   0.733   0.733   0.733   0.733   0.733   0.733   0.733   0.733   0.733   0.733   0.733   0.733   0.733   0.733   0.733   0.733   0.733   0.733   0.733
    73.95    0.733   0.733   0.733   0.733   0.733   0.733   0.733   0.733   0.733   0.733   0.733   0.733   0.733   0.733   0.733   0.733   0.733   0.733   0.733   0.733   0.733   0.733   0.733   0.733   0.733   0.733
    71.72    0.733   0.733   0.733   0.733   0.733   0.733   0.733   0.733   0.733   0.733   0.733   0.733   0.733   0.733   0.733   0.733   0.733   0.733   0.733   0.733   0.733   0.733   0.733   0.733   0.733   0.733
    69.49    0.733   0.733   0.733   0.733   0.733   0.733   0.733   0.733   0.733   0.733   0.733   0.733   0.733   0.733   0.733   0.733   0.733   0.733   0.733   0.733   0.733   0.733   0.733   0.733   0.733   0.733
    67.26    0.733   0.733   0.733   0.733   0.733   0.733   0.733   0.733   0.733   0.733   0.733   0.733   0.733   0.733   0.733   0.733   0.733   0.733   0.733   0.733   0.733   0.733   0.733   0.733   0.733   0.733
    65.03    0.733   0.733   0.733   0.733   0.733   0.733   0.733   0.733   0.733   0.733   0.733   0.733   0.733   0.733   0.733   0.733   0.733   0.733   0.733   0.733   0.733   0.733   0.733   0.733   0.733   0.733
    62.80    0.733   0.733   0.733   0.733   0.733   0.733   0.733   0.733   0.733   0.733   0.733   0.733   0.733   0.733   0.733   0.733   0.733   0.733   0.733   0.733   0.733   0.733   0.733   0.733   0.733   0.733
    60.57    0.733   0.733   0.733   0.733   0.733   0.733   0.733   0.733   0.733   0.733   0.733   0.733   0.733   0.733   0.733   0.733   0.733   0.733   0.733   0.733   0.733   0.733   0.733   0.733   0.733   0.733
    58.34    0.733   0.733   0.733   0.733   0.733   0.733   0.733   0.733   0.733   0.733   0.733   0.733   0.733   0.733   0.733   0.733   0.733   0.733   0.733   0.733   0.733   0.733   0.733   0.733   0.733   0.733
    56.11    0.733   0.733   0.733   0.733   0.733   0.733   0.733   0.733   0.733   0.733   0.733   0.733   0.733   0.733   0.733   0.733   0.733   0.733   0.733   0.733   0.733   0.733   0.733   0.733   0.733   0.733
    53.89    0.733   0.733   0.733   0.733   0.733   0.733   0.733   0.733   0.733   0.733   0.733   0.733   0.733   0.733   0.733   0.733   0.733   0.733   0.733   0.733   0.733   0.733   0.733   0.733   0.733   0.733
    51.66    0.733   0.733   0.733   0.733   0.733   0.733   0.733   0.733   0.733   0.733   0.733   0.733   0.733   0.733   0.733   0.733   0.733   0.733   0.733   0.733   0.733   0.733   0.733   0.733   0.733   0.733
    49.43    0.733   0.733   0.733   0.733   0.733   0.733   0.733   0.733   0.733   0.733   0.733   0.733   0.733   0.733   0.733   0.733   0.733   0.733   0.733   0.733   0.733   0.733   0.733   0.733   0.733   0.733
    47.20    0.733   0.733   0.733   0.733   0.733   0.733   0.733   0.733   0.733   0.733   0.733   0.733   0.733   0.733   0.733   0.733   0.733   0.733   0.733   0.733   0.733   0.733   0.733   0.733   0.733   0.733
    44.97    0.733   0.733   0.733   0.733   0.733   0.733   0.733   0.733   0.733   0.733   0.733   0.733   0.733   0.733   0.733   0.733   0.733   0.733   0.733   0.733   0.733   0.733   0.733   0.733   0.733   0.733
    42.74    0.733   0.733   0.733   0.733   0.733   0.733   0.733   0.733   0.733   0.733   0.733   0.733   0.733   0.733   0.733   0.733   0.733   0.733   0.733   0.733   0.733   0.733   0.733   0.733   0.733   0.733
    40.51    0.733   0.733   0.733   0.733   0.733   0.733   0.733   0.733   0.733   0.733   0.733   0.733   0.733   0.733   0.733   0.733   0.733   0.733   0.733   0.733   0.733   0.733   0.733   0.733   0.733   0.733
    38.28    0.733   0.733   0.733   0.733   0.733   0.733   0.733   0.733   0.733   0.733   0.733   0.733   0.733   0.733   0.733   0.733   0.733   0.733   0.733   0.733   0.733   0.733   0.733   0.733   0.733   0.733
    36.05    0.733   0.733   0.733   0.733   0.733   0.733   0.733   0.733   0.733   0.733   0.733   0.733   0.733   0.733   0.733   0.733   0.733   0.733   0.733   0.733   0.733   0.733   0.733   0.733   0.733   0.733
    33.82    0.733   0.733   0.733   0.733   0.733   0.733   0.733   0.733   0.733   0.733   0.733   0.733   0.733   0.733   0.733   0.733   0.733   0.733   0.733   0.733   0.733   0.733   0.733   0.733   0.733   0.733
    31.59    0.733   0.733   0.733   0.733   0.733   0.733   0.733   0.733   0.733   0.733   0.733   0.733   0.733   0.733   0.733   0.733   0.733   0.733   0.733   0.733   0.733   0.733   0.733   0.733   0.733   0.733
    29.36    0.733   0.733   0.733   0.733   0.733   0.733   0.733   0.733   0.733   0.733   0.733   0.733   0.733   0.733   0.733   0.733   0.733   0.733   0.733   0.733   0.733   0.733   0.733   0.733   0.733   0.733
    27.13    0.733   0.733   0.733   0.733   0.733   0.733   0.733   0.733   0.733   0.733   0.733   0.733   0.733   0.733   0.733   0.733   0.733   0.733   0.733   0.733   0.733   0.733   0.733   0.733   0.733   0.733
    24.90    0.733   0.733   0.733   0.733   0.733   0.733   0.733   0.733   0.733   0.733   0.733   0.733   0.733   0.733   0.733   0.733   0.733   0.733   0.733   0.733   0.733   0.733   0.733   0.733   0.733   0.733
    22.67    0.733   0.733   0.733   0.733   0.733   0.733   0.733   0.733   0.733   0.733   0.733   0.733   0.733   0.733   0.733   0.733   0.733   0.733   0.733   0.733   0.733   0.733   0.733   0.733   0.733   0.733
    20.44    0.733   0.733   0.733   0.733   0.733   0.733   0.733   0.733   0.733   0.733   0.733   0.733   0.733   0.733   0.733   0.733   0.733   0.733   0.733   0.733   0.733   0.733   0.733   0.733   0.733   0.733
    18.21    0.733   0.733   0.733   0.733   0.733   0.733   0.733   0.733   0.733   0.733   0.733   0.733   0.733   0.733   0.733   0.733   0.733   0.733   0.733   0.733   0.733   0.733   0.733   0.733   0.733   0.733
    15.98    0.733   0.733   0.733   0.733   0.733   0.733   0.733   0.733   0.733   0.733   0.733   0.733   0.733   0.733   0.733   0.733   0.733   0.733   0.733   0.733   0.733   0.733   0.733   0.733   0.733   0.733
    13.75    0.733   0.733   0.733   0.733   0.733   0.733   0.733   0.733   0.733   0.733   0.733   0.733   0.733   0.733   0.733   0.733   0.733   0.733   0.733   0.733   0.733   0.733   0.733   0.733   0.733   0.733

   Mean standard deviation across all grid points:
      u component:    1.260 m/s
      v component:    1.152 m/s
      w component:    0.733 m/s


U-component (X) statistics from the interpolated hub point:

   Mean =   4.9998 m/s
   TI   =  26.4038 %


Processing complete.  225.62 CPU seconds used.
