
These predictions were generated by HydroDyn on 20-Dec-2024 at 01:39:50.




    Time                       HydroFxi                       HydroFyi                       HydroFzi                       HydroMxi                       HydroMyi                       HydroMzi
   (sec)                            (N)                            (N)                            (N)                          (N-m)                          (N-m)                          (N-m)
    0.0000                      0.14339022E+06                     -0.10336914E-03                      0.42239668E+08                      0.58578264E-02                     -0.53060494E+07                     -0.52797995E-03
    0.0100                      0.12450928E+07                     -0.19870368E+06                      0.42443274E+08                      0.18512152E+08                      0.10512320E+09                      0.62733180E+07
    0.0200                      0.14426198E+07                     -0.21700525E+06                      0.42561015E+08                      0.20122758E+08                      0.12812763E+09                      0.53286954E+07
    0.0300                      0.16547914E+07                     -0.22965757E+06                      0.42678436E+08                      0.20772347E+08                      0.14992573E+09                      0.42982394E+07
    0.0400                      0.18591968E+07                     -0.23358593E+06                      0.42796044E+08                      0.20791053E+08                      0.17261513E+09                      0.33274654E+07
