
These predictions were generated by HydroDyn on 17-Oct-2024 at 22:16:56.




    Time                       HydroFxi                       HydroFyi                       HydroFzi                       HydroMxi                       HydroMyi                       HydroMzi
   (sec)                            (N)                            (N)                            (N)                          (N-m)                          (N-m)                          (N-m)
    0.0000                      0.14339022E+06                     -0.10336914E-03                      0.42239668E+08                      0.58578264E-02                     -0.53060494E+07                     -0.52797995E-03
    0.0100                      0.74685480E+05                     -0.30928327E+06                      0.42329554E+08                      0.29273764E+08                     -0.86715353E+07                      0.28890376E+05
    0.0200                      0.96275844E+05                     -0.34761970E+06                      0.42328685E+08                      0.32935123E+08                     -0.67503993E+07                      0.31560679E+06
    0.0300                      0.11901840E+06                     -0.38823493E+06                      0.42327705E+08                      0.36223058E+08                     -0.46449798E+07                      0.60391557E+06
    0.0400                      0.14328720E+06                     -0.42625455E+06                      0.42326853E+08                      0.39654477E+08                     -0.24488942E+07                      0.89057317E+06
