
This summary file was generated by TurbSim (from OpenFAST-v2.5.0-3490-g24c05a74) on 20-Dec-2024 at 01:34:52.


Runtime Options:

     40071  Random seed #1
    RANLUX  Type of random number generator
         F  Output binary HH turbulence parameters?
         F  Output formatted turbulence parameters?
         F  Output AeroDyn HH files?
         T  Output AeroDyn FF files?
         F  Output BLADED FF files?
         F  Output tower data?
         F  Output HAWC FF files?
         F  Output formatted FF files?
         T  Output coherent turbulence time step file?
 0 -  NONE  IEC turbulence models scaled to exact specified standard deviation


Turbine/Model Specifications:

        31  Vertical grid-point matrix dimension
        31  Horizontal grid-point matrix dimension
     0.100  Time step [seconds]
     2.000  Analysis time [seconds]
     2.000  Usable output time [seconds]
     1.501  Hub height [m]
     3.000  Grid height [m]
     3.000  Grid width [m]
     0.000  Vertical flow angle [degrees]
     0.000  Horizontal flow angle [degrees]


Meteorological Boundary Conditions:

    IECKAI  IEC Kaimal spectral model
         1  IEC standard: IEC 61400-1 Ed. 3: 2005
         A  IEC turbulence characteristic
       NTM  IEC Normal Turbulence Model
       N/A  IEC Extreme Turbulence Model (ETM) "c" parameter [m/s]
       PL   Wind profile type
     1.501  Reference height [m]
     1.200  Reference wind speed [m/s]
       N/A  Jet height [m]
     0.200  Power law exponent
     0.030  Surface roughness length [m]


Non-IEC Meteorological Boundary Conditions:

       N/A  Site latitude [degrees]
       N/A  Gradient Richardson number
       N/A  Friction or shear velocity [m/s]
       N/A  Mixing layer depth [m]
       N/A  Mean hub u'w' Reynolds stress
       N/A  Mean hub u'v' Reynolds stress
       N/A  Mean hub v'w' Reynolds stress


Spatial Coherence Models:

       IEC  u-component coherence model
      NONE  v-component coherence model
      NONE  w-component coherence model
(   12.000, 0.141E-01)  u-component coherence parameters
                   N/A  v-component coherence parameters
                   N/A  w-component coherence parameters
       N/A  Coherence exponent


You have requested that the following file(s) be generated:

   /home/runner/work/OWENS.jl/OWENS.jl/examples/literate/data_RM2/3mx3m1pt2msNTM.bts (AeroDyn/TurbSim full-field wind file)


Turbulence Simulation Scaling Parameter Summary:

   Turbulence model used                            =  IEC Kaimal
   Turbulence characteristic                        =  A
   IEC turbulence type                              =  Normal Turbulence Model
   IEC standard                                     =  IEC 61400-1 Ed. 3: 2005
   Mean wind speed at hub height                    =    1.200 m/s
   Expected value of turbulence intensity at 15 m/s =   16.000%
   Characteristic value of standard deviation       =    1.040 m/s
   Turbulence scale                                 =    1.051 m
   u-component integral scale                       =    8.511 m
   Coherency scale                                  =    8.511 m
   Characteristic value of hub turbulence intensity =   86.667%
   Gradient Richardson number                       =    0.000

   Wind profile type                                =  Power law
   Power law exponent                               =    0.200
   Mean shear across rotor disk                     =    0.367 (m/s)/m
   Assumed rotor diameter                           =    3.000 m
   Surface roughness length                         =    0.030 m

   Nyquist frequency of turbulent wind field        =    5.000 Hz

   Number of time steps in the FFT                  =       20
   Number of time steps output                      =       20
   Number of points simulated                       =      961


Mean Flow Angles:

   Vertical   =   0.0 degrees
   Horizontal =   0.0 degrees

Mean Wind Speed Profile:

   Height    Wind Speed   Horizontal Angle  Vertical Angle  U-comp (X)   V-comp (Y)   W-comp (Z)
     (m)        (m/s)         (degrees)       (degrees)       (m/s)        (m/s)        (m/s)   
   ------    ----------   ----------------  --------------  ----------   ----------   ----------
      3.0        1.38            0.00            0.00          1.38         0.00         0.00
      2.9        1.37            0.00            0.00          1.37         0.00         0.00
      2.8        1.36            0.00            0.00          1.36         0.00         0.00
      2.7        1.35            0.00            0.00          1.35         0.00         0.00
      2.6        1.34            0.00            0.00          1.34         0.00         0.00
      2.5        1.33            0.00            0.00          1.33         0.00         0.00
      2.4        1.32            0.00            0.00          1.32         0.00         0.00
      2.3        1.31            0.00            0.00          1.31         0.00         0.00
      2.2        1.30            0.00            0.00          1.30         0.00         0.00
      2.1        1.28            0.00            0.00          1.28         0.00         0.00
      2.0        1.27            0.00            0.00          1.27         0.00         0.00
      1.9        1.26            0.00            0.00          1.26         0.00         0.00
      1.8        1.24            0.00            0.00          1.24         0.00         0.00
      1.7        1.23            0.00            0.00          1.23         0.00         0.00
      1.6        1.22            0.00            0.00          1.22         0.00         0.00
      1.5        1.20            0.00            0.00          1.20         0.00         0.00
      1.4        1.18            0.00            0.00          1.18         0.00         0.00
      1.3        1.17            0.00            0.00          1.17         0.00         0.00
      1.2        1.15            0.00            0.00          1.15         0.00         0.00
      1.1        1.13            0.00            0.00          1.13         0.00         0.00
      1.0        1.11            0.00            0.00          1.11         0.00         0.00
      0.9        1.08            0.00            0.00          1.08         0.00         0.00
      0.8        1.06            0.00            0.00          1.06         0.00         0.00
      0.7        1.03            0.00            0.00          1.03         0.00         0.00
      0.6        1.00            0.00            0.00          1.00         0.00         0.00
      0.5        0.96            0.00            0.00          0.96         0.00         0.00
      0.4        0.92            0.00            0.00          0.92         0.00         0.00
      0.3        0.87            0.00            0.00          0.87         0.00         0.00
      0.2        0.80            0.00            0.00          0.80         0.00         0.00
      0.1        0.70            0.00            0.00          0.70         0.00         0.00
      0.0        0.28            0.00            0.00          0.28         0.00         0.00


Harvested Random Seeds after Generation of the Random Numbers:

       267829 K 1
            0 K 2


Hub-Height Simulated Turbulence Statistical Summary:

   Type of Wind        Min (m/s)   Mean (m/s)    Max (m/s)  Sigma (m/s)       TI (%)
   ----------------    ---------   ----------    ---------  -----------       ------
   Longitudinal (u)         0.42         1.20         2.22        0.576       47.985
   Lateral (v)             -0.85         0.00         0.89        0.438       36.480
   Vertical (w)            -0.68         0.00         0.78        0.364       30.308
   U component              0.42         1.20         2.22        0.576       47.985
   V component             -0.85         0.00         0.89        0.438       36.480
   W component             -0.68         0.00         0.78        0.364       30.308
   Horizontal (U&V)         0.54         1.29         2.27        0.549       42.570
   Total                    0.58         1.35         2.27        0.535       39.752

                       Min Reynolds     Mean Reynolds    Max Reynolds    Correlation
   Product             Stress (m/s)^2   Stress (m/s)^2   Stress (m/s)^2  Coefficient
   ----------------    --------------   --------------   --------------  -----------
   u'w'                     -0.284            -0.039             0.200        -0.186
   u'v'                     -0.283             0.044             0.473         0.174
   v'w'                     -0.162             0.108             0.465         0.680


   Friction Velocity (Ustar)  =      0.197 m/s
   Maximum Instantaneous TKE  =      0.632 (m/s)^2
   Maximum Instantaneous CTKE =      0.298 (m/s)^2


Grid Point Variance Summary:

   Y-coord   -1.50   -1.40   -1.30   -1.20   -1.10   -1.00   -0.90   -0.80   -0.70   -0.60   -0.50   -0.40   -0.30   -0.20   -0.10    0.00    0.10    0.20    0.30    0.40    0.50    0.60    0.70    0.80    0.90    1.00    1.10    1.20    1.30    1.40    1.50

   Height   Standard deviation at grid points for the u component:
     3.00    0.311   0.386   0.383   0.572   0.463   0.346   0.363   0.421   0.255   0.396   0.353   0.427   0.507   0.466   0.392   0.335   0.415   0.267   0.376   0.446   0.402   0.409   0.404   0.433   0.388   0.389   0.331   0.302   0.392   0.354   0.474
     2.90    0.342   0.388   0.407   0.468   0.556   0.543   0.407   0.301   0.365   0.547   0.583   0.380   0.462   0.330   0.422   0.330   0.495   0.337   0.301   0.360   0.373   0.386   0.370   0.308   0.367   0.337   0.415   0.316   0.278   0.311   0.411
     2.80    0.293   0.380   0.456   0.397   0.387   0.424   0.220   0.342   0.426   0.496   0.376   0.428   0.451   0.377   0.372   0.490   0.430   0.347   0.335   0.366   0.256   0.341   0.495   0.236   0.377   0.333   0.313   0.293   0.303   0.355   0.358
     2.70    0.391   0.346   0.334   0.426   0.386   0.338   0.369   0.335   0.338   0.407   0.282   0.280   0.375   0.284   0.425   0.546   0.444   0.393   0.299   0.297   0.316   0.310   0.378   0.448   0.345   0.447   0.489   0.271   0.328   0.245   0.312
     2.60    0.531   0.284   0.372   0.327   0.375   0.279   0.366   0.411   0.364   0.342   0.333   0.428   0.384   0.288   0.315   0.391   0.510   0.264   0.269   0.351   0.314   0.271   0.374   0.399   0.455   0.511   0.269   0.374   0.297   0.413   0.466
     2.50    0.420   0.458   0.330   0.334   0.394   0.305   0.321   0.322   0.307   0.372   0.435   0.290   0.253   0.345   0.270   0.320   0.408   0.382   0.405   0.369   0.492   0.431   0.362   0.490   0.336   0.449   0.338   0.254   0.338   0.456   0.383
     2.40    0.297   0.407   0.237   0.409   0.281   0.324   0.340   0.373   0.342   0.444   0.380   0.220   0.419   0.413   0.301   0.294   0.399   0.282   0.344   0.363   0.431   0.324   0.390   0.453   0.417   0.304   0.256   0.299   0.261   0.351   0.446
     2.30    0.280   0.433   0.546   0.423   0.364   0.368   0.352   0.266   0.364   0.486   0.493   0.455   0.484   0.427   0.274   0.362   0.337   0.395   0.335   0.290   0.384   0.375   0.333   0.399   0.277   0.415   0.485   0.233   0.327   0.304   0.405
     2.20    0.339   0.230   0.396   0.489   0.354   0.425   0.404   0.327   0.293   0.353   0.367   0.438   0.348   0.288   0.395   0.304   0.357   0.501   0.417   0.333   0.380   0.261   0.478   0.313   0.442   0.340   0.385   0.589   0.323   0.330   0.498
     2.10    0.417   0.421   0.345   0.573   0.639   0.359   0.350   0.339   0.322   0.429   0.311   0.276   0.370   0.274   0.333   0.300   0.289   0.395   0.448   0.510   0.383   0.327   0.388   0.552   0.326   0.478   0.536   0.499   0.529   0.357   0.404
     2.00    0.323   0.411   0.527   0.627   0.548   0.596   0.314   0.379   0.302   0.453   0.484   0.391   0.383   0.349   0.281   0.362   0.268   0.271   0.296   0.397   0.409   0.343   0.358   0.423   0.463   0.532   0.390   0.358   0.326   0.322   0.325
     1.90    0.505   0.252   0.431   0.455   0.575   0.613   0.450   0.323   0.277   0.320   0.289   0.276   0.380   0.609   0.412   0.321   0.357   0.395   0.239   0.322   0.275   0.469   0.548   0.294   0.432   0.453   0.509   0.249   0.315   0.427   0.429
     1.80    0.431   0.504   0.375   0.443   0.559   0.402   0.479   0.323   0.327   0.369   0.267   0.511   0.366   0.623   0.746   0.448   0.338   0.394   0.316   0.424   0.430   0.506   0.509   0.323   0.334   0.479   0.408   0.295   0.344   0.272   0.390
     1.70    0.328   0.385   0.359   0.352   0.405   0.504   0.377   0.357   0.226   0.312   0.366   0.364   0.508   0.658   0.715   0.504   0.370   0.479   0.299   0.310   0.425   0.385   0.376   0.354   0.388   0.326   0.364   0.301   0.283   0.400   0.345
     1.60    0.252   0.301   0.306   0.471   0.396   0.592   0.367   0.303   0.334   0.312   0.329   0.455   0.383   0.545   0.648   0.674   0.502   0.503   0.268   0.351   0.402   0.359   0.363   0.263   0.391   0.423   0.465   0.416   0.288   0.305   0.414
     1.50    0.373   0.377   0.360   0.455   0.541   0.640   0.363   0.311   0.347   0.434   0.249   0.363   0.461   0.480   0.559   0.576   0.644   0.554   0.432   0.419   0.477   0.510   0.262   0.294   0.435   0.480   0.243   0.403   0.458   0.267   0.286
     1.40    0.325   0.286   0.347   0.246   0.406   0.408   0.475   0.271   0.309   0.379   0.289   0.348   0.431   0.325   0.467   0.571   0.527   0.595   0.304   0.276   0.489   0.322   0.512   0.293   0.482   0.369   0.350   0.327   0.326   0.262   0.365
     1.30    0.295   0.294   0.352   0.292   0.257   0.310   0.329   0.439   0.281   0.400   0.291   0.436   0.486   0.281   0.412   0.499   0.525   0.615   0.365   0.415   0.486   0.548   0.434   0.558   0.368   0.509   0.385   0.278   0.255   0.409   0.476
     1.20    0.347   0.278   0.302   0.323   0.378   0.379   0.403   0.415   0.262   0.279   0.360   0.448   0.275   0.358   0.367   0.268   0.433   0.540   0.304   0.401   0.546   0.396   0.245   0.516   0.638   0.369   0.512   0.354   0.384   0.311   0.427
     1.10    0.297   0.395   0.346   0.298   0.436   0.239   0.358   0.448   0.415   0.291   0.427   0.258   0.333   0.379   0.283   0.392   0.257   0.320   0.406   0.413   0.475   0.535   0.423   0.497   0.498   0.431   0.390   0.367   0.392   0.473   0.373
     1.00    0.488   0.501   0.244   0.399   0.353   0.345   0.393   0.332   0.403   0.278   0.446   0.388   0.424   0.285   0.357   0.292   0.424   0.404   0.241   0.316   0.394   0.428   0.377   0.437   0.361   0.378   0.368   0.383   0.464   0.413   0.450
     0.90    0.462   0.481   0.339   0.397   0.289   0.388   0.341   0.369   0.339   0.512   0.478   0.386   0.449   0.295   0.300   0.329   0.454   0.461   0.299   0.342   0.355   0.317   0.476   0.389   0.272   0.291   0.289   0.391   0.392   0.503   0.500
     0.80    0.363   0.432   0.316   0.325   0.266   0.281   0.372   0.452   0.365   0.383   0.351   0.267   0.361   0.508   0.528   0.528   0.457   0.330   0.277   0.320   0.339   0.268   0.395   0.303   0.379   0.360   0.403   0.306   0.331   0.386   0.450
     0.70    0.277   0.323   0.324   0.371   0.335   0.336   0.351   0.447   0.240   0.405   0.283   0.310   0.508   0.591   0.446   0.516   0.371   0.328   0.313   0.368   0.389   0.350   0.353   0.325   0.362   0.277   0.282   0.335   0.284   0.369   0.346
     0.60    0.370   0.302   0.448   0.462   0.436   0.414   0.399   0.347   0.375   0.299   0.305   0.329   0.359   0.517   0.294   0.403   0.537   0.297   0.317   0.349   0.326   0.344   0.314   0.430   0.386   0.369   0.439   0.291   0.344   0.318   0.418
     0.50    0.359   0.283   0.413   0.500   0.430   0.410   0.381   0.448   0.257   0.310   0.359   0.276   0.386   0.422   0.449   0.422   0.414   0.382   0.287   0.382   0.272   0.338   0.388   0.397   0.434   0.258   0.348   0.309   0.287   0.349   0.397
     0.40    0.321   0.267   0.409   0.371   0.415   0.280   0.382   0.398   0.444   0.360   0.246   0.321   0.404   0.424   0.266   0.403   0.440   0.477   0.308   0.515   0.269   0.253   0.323   0.331   0.370   0.290   0.362   0.310   0.315   0.410   0.556
     0.30    0.318   0.401   0.530   0.380   0.409   0.243   0.336   0.395   0.497   0.341   0.360   0.389   0.371   0.356   0.278   0.328   0.283   0.449   0.582   0.561   0.581   0.381   0.383   0.279   0.306   0.353   0.262   0.227   0.369   0.412   0.538
     0.20    0.282   0.449   0.462   0.497   0.475   0.254   0.328   0.358   0.514   0.372   0.309   0.522   0.296   0.387   0.418   0.321   0.487   0.530   0.459   0.438   0.431   0.406   0.265   0.353   0.334   0.390   0.394   0.425   0.405   0.360   0.425
     0.10    0.330   0.408   0.534   0.330   0.363   0.305   0.361   0.300   0.421   0.311   0.407   0.519   0.541   0.350   0.477   0.491   0.542   0.414   0.248   0.307   0.294   0.404   0.299   0.397   0.285   0.307   0.319   0.380   0.252   0.330   0.246
     0.00    0.399   0.442   0.400   0.468   0.303   0.363   0.367   0.357   0.386   0.426   0.446   0.517   0.484   0.462   0.549   0.585   0.440   0.520   0.530   0.328   0.443   0.500   0.572   0.420   0.317   0.455   0.285   0.385   0.339   0.278   0.385

   Height   Standard deviation at grid points for the v component:
     3.00    0.438   0.438   0.438   0.438   0.438   0.438   0.438   0.438   0.438   0.438   0.438   0.438   0.438   0.438   0.438   0.438   0.438   0.438   0.438   0.438   0.438   0.438   0.438   0.438   0.438   0.438   0.438   0.438   0.438   0.438   0.438
     2.90    0.438   0.438   0.438   0.438   0.438   0.438   0.438   0.438   0.438   0.438   0.438   0.438   0.438   0.438   0.438   0.438   0.438   0.438   0.438   0.438   0.438   0.438   0.438   0.438   0.438   0.438   0.438   0.438   0.438   0.438   0.438
     2.80    0.438   0.438   0.438   0.438   0.438   0.438   0.438   0.438   0.438   0.438   0.438   0.438   0.438   0.438   0.438   0.438   0.438   0.438   0.438   0.438   0.438   0.438   0.438   0.438   0.438   0.438   0.438   0.438   0.438   0.438   0.438
     2.70    0.438   0.438   0.438   0.438   0.438   0.438   0.438   0.438   0.438   0.438   0.438   0.438   0.438   0.438   0.438   0.438   0.438   0.438   0.438   0.438   0.438   0.438   0.438   0.438   0.438   0.438   0.438   0.438   0.438   0.438   0.438
     2.60    0.438   0.438   0.438   0.438   0.438   0.438   0.438   0.438   0.438   0.438   0.438   0.438   0.438   0.438   0.438   0.438   0.438   0.438   0.438   0.438   0.438   0.438   0.438   0.438   0.438   0.438   0.438   0.438   0.438   0.438   0.438
     2.50    0.438   0.438   0.438   0.438   0.438   0.438   0.438   0.438   0.438   0.438   0.438   0.438   0.438   0.438   0.438   0.438   0.438   0.438   0.438   0.438   0.438   0.438   0.438   0.438   0.438   0.438   0.438   0.438   0.438   0.438   0.438
     2.40    0.438   0.438   0.438   0.438   0.438   0.438   0.438   0.438   0.438   0.438   0.438   0.438   0.438   0.438   0.438   0.438   0.438   0.438   0.438   0.438   0.438   0.438   0.438   0.438   0.438   0.438   0.438   0.438   0.438   0.438   0.438
     2.30    0.438   0.438   0.438   0.438   0.438   0.438   0.438   0.438   0.438   0.438   0.438   0.438   0.438   0.438   0.438   0.438   0.438   0.438   0.438   0.438   0.438   0.438   0.438   0.438   0.438   0.438   0.438   0.438   0.438   0.438   0.438
     2.20    0.438   0.438   0.438   0.438   0.438   0.438   0.438   0.438   0.438   0.438   0.438   0.438   0.438   0.438   0.438   0.438   0.438   0.438   0.438   0.438   0.438   0.438   0.438   0.438   0.438   0.438   0.438   0.438   0.438   0.438   0.438
     2.10    0.438   0.438   0.438   0.438   0.438   0.438   0.438   0.438   0.438   0.438   0.438   0.438   0.438   0.438   0.438   0.438   0.438   0.438   0.438   0.438   0.438   0.438   0.438   0.438   0.438   0.438   0.438   0.438   0.438   0.438   0.438
     2.00    0.438   0.438   0.438   0.438   0.438   0.438   0.438   0.438   0.438   0.438   0.438   0.438   0.438   0.438   0.438   0.438   0.438   0.438   0.438   0.438   0.438   0.438   0.438   0.438   0.438   0.438   0.438   0.438   0.438   0.438   0.438
     1.90    0.438   0.438   0.438   0.438   0.438   0.438   0.438   0.438   0.438   0.438   0.438   0.438   0.438   0.438   0.438   0.438   0.438   0.438   0.438   0.438   0.438   0.438   0.438   0.438   0.438   0.438   0.438   0.438   0.438   0.438   0.438
     1.80    0.438   0.438   0.438   0.438   0.438   0.438   0.438   0.438   0.438   0.438   0.438   0.438   0.438   0.438   0.438   0.438   0.438   0.438   0.438   0.438   0.438   0.438   0.438   0.438   0.438   0.438   0.438   0.438   0.438   0.438   0.438
     1.70    0.438   0.438   0.438   0.438   0.438   0.438   0.438   0.438   0.438   0.438   0.438   0.438   0.438   0.438   0.438   0.438   0.438   0.438   0.438   0.438   0.438   0.438   0.438   0.438   0.438   0.438   0.438   0.438   0.438   0.438   0.438
     1.60    0.438   0.438   0.438   0.438   0.438   0.438   0.438   0.438   0.438   0.438   0.438   0.438   0.438   0.438   0.438   0.438   0.438   0.438   0.438   0.438   0.438   0.438   0.438   0.438   0.438   0.438   0.438   0.438   0.438   0.438   0.438
     1.50    0.438   0.438   0.438   0.438   0.438   0.438   0.438   0.438   0.438   0.438   0.438   0.438   0.438   0.438   0.438   0.438   0.438   0.438   0.438   0.438   0.438   0.438   0.438   0.438   0.438   0.438   0.438   0.438   0.438   0.438   0.438
     1.40    0.438   0.438   0.438   0.438   0.438   0.438   0.438   0.438   0.438   0.438   0.438   0.438   0.438   0.438   0.438   0.438   0.438   0.438   0.438   0.438   0.438   0.438   0.438   0.438   0.438   0.438   0.438   0.438   0.438   0.438   0.438
     1.30    0.438   0.438   0.438   0.438   0.438   0.438   0.438   0.438   0.438   0.438   0.438   0.438   0.438   0.438   0.438   0.438   0.438   0.438   0.438   0.438   0.438   0.438   0.438   0.438   0.438   0.438   0.438   0.438   0.438   0.438   0.438
     1.20    0.438   0.438   0.438   0.438   0.438   0.438   0.438   0.438   0.438   0.438   0.438   0.438   0.438   0.438   0.438   0.438   0.438   0.438   0.438   0.438   0.438   0.438   0.438   0.438   0.438   0.438   0.438   0.438   0.438   0.438   0.438
     1.10    0.438   0.438   0.438   0.438   0.438   0.438   0.438   0.438   0.438   0.438   0.438   0.438   0.438   0.438   0.438   0.438   0.438   0.438   0.438   0.438   0.438   0.438   0.438   0.438   0.438   0.438   0.438   0.438   0.438   0.438   0.438
     1.00    0.438   0.438   0.438   0.438   0.438   0.438   0.438   0.438   0.438   0.438   0.438   0.438   0.438   0.438   0.438   0.438   0.438   0.438   0.438   0.438   0.438   0.438   0.438   0.438   0.438   0.438   0.438   0.438   0.438   0.438   0.438
     0.90    0.438   0.438   0.438   0.438   0.438   0.438   0.438   0.438   0.438   0.438   0.438   0.438   0.438   0.438   0.438   0.438   0.438   0.438   0.438   0.438   0.438   0.438   0.438   0.438   0.438   0.438   0.438   0.438   0.438   0.438   0.438
     0.80    0.438   0.438   0.438   0.438   0.438   0.438   0.438   0.438   0.438   0.438   0.438   0.438   0.438   0.438   0.438   0.438   0.438   0.438   0.438   0.438   0.438   0.438   0.438   0.438   0.438   0.438   0.438   0.438   0.438   0.438   0.438
     0.70    0.438   0.438   0.438   0.438   0.438   0.438   0.438   0.438   0.438   0.438   0.438   0.438   0.438   0.438   0.438   0.438   0.438   0.438   0.438   0.438   0.438   0.438   0.438   0.438   0.438   0.438   0.438   0.438   0.438   0.438   0.438
     0.60    0.438   0.438   0.438   0.438   0.438   0.438   0.438   0.438   0.438   0.438   0.438   0.438   0.438   0.438   0.438   0.438   0.438   0.438   0.438   0.438   0.438   0.438   0.438   0.438   0.438   0.438   0.438   0.438   0.438   0.438   0.438
     0.50    0.438   0.438   0.438   0.438   0.438   0.438   0.438   0.438   0.438   0.438   0.438   0.438   0.438   0.438   0.438   0.438   0.438   0.438   0.438   0.438   0.438   0.438   0.438   0.438   0.438   0.438   0.438   0.438   0.438   0.438   0.438
     0.40    0.438   0.438   0.438   0.438   0.438   0.438   0.438   0.438   0.438   0.438   0.438   0.438   0.438   0.438   0.438   0.438   0.438   0.438   0.438   0.438   0.438   0.438   0.438   0.438   0.438   0.438   0.438   0.438   0.438   0.438   0.438
     0.30    0.438   0.438   0.438   0.438   0.438   0.438   0.438   0.438   0.438   0.438   0.438   0.438   0.438   0.438   0.438   0.438   0.438   0.438   0.438   0.438   0.438   0.438   0.438   0.438   0.438   0.438   0.438   0.438   0.438   0.438   0.438
     0.20    0.438   0.438   0.438   0.438   0.438   0.438   0.438   0.438   0.438   0.438   0.438   0.438   0.438   0.438   0.438   0.438   0.438   0.438   0.438   0.438   0.438   0.438   0.438   0.438   0.438   0.438   0.438   0.438   0.438   0.438   0.438
     0.10    0.438   0.438   0.438   0.438   0.438   0.438   0.438   0.438   0.438   0.438   0.438   0.438   0.438   0.438   0.438   0.438   0.438   0.438   0.438   0.438   0.438   0.438   0.438   0.438   0.438   0.438   0.438   0.438   0.438   0.438   0.438
     0.00    0.438   0.438   0.438   0.438   0.438   0.438   0.438   0.438   0.438   0.438   0.438   0.438   0.438   0.438   0.438   0.438   0.438   0.438   0.438   0.438   0.438   0.438   0.438   0.438   0.438   0.438   0.438   0.438   0.438   0.438   0.438

   Height   Standard deviation at grid points for the w component:
     3.00    0.364   0.364   0.364   0.364   0.364   0.364   0.364   0.364   0.364   0.364   0.364   0.364   0.364   0.364   0.364   0.364   0.364   0.364   0.364   0.364   0.364   0.364   0.364   0.364   0.364   0.364   0.364   0.364   0.364   0.364   0.364
     2.90    0.364   0.364   0.364   0.364   0.364   0.364   0.364   0.364   0.364   0.364   0.364   0.364   0.364   0.364   0.364   0.364   0.364   0.364   0.364   0.364   0.364   0.364   0.364   0.364   0.364   0.364   0.364   0.364   0.364   0.364   0.364
     2.80    0.364   0.364   0.364   0.364   0.364   0.364   0.364   0.364   0.364   0.364   0.364   0.364   0.364   0.364   0.364   0.364   0.364   0.364   0.364   0.364   0.364   0.364   0.364   0.364   0.364   0.364   0.364   0.364   0.364   0.364   0.364
     2.70    0.364   0.364   0.364   0.364   0.364   0.364   0.364   0.364   0.364   0.364   0.364   0.364   0.364   0.364   0.364   0.364   0.364   0.364   0.364   0.364   0.364   0.364   0.364   0.364   0.364   0.364   0.364   0.364   0.364   0.364   0.364
     2.60    0.364   0.364   0.364   0.364   0.364   0.364   0.364   0.364   0.364   0.364   0.364   0.364   0.364   0.364   0.364   0.364   0.364   0.364   0.364   0.364   0.364   0.364   0.364   0.364   0.364   0.364   0.364   0.364   0.364   0.364   0.364
     2.50    0.364   0.364   0.364   0.364   0.364   0.364   0.364   0.364   0.364   0.364   0.364   0.364   0.364   0.364   0.364   0.364   0.364   0.364   0.364   0.364   0.364   0.364   0.364   0.364   0.364   0.364   0.364   0.364   0.364   0.364   0.364
     2.40    0.364   0.364   0.364   0.364   0.364   0.364   0.364   0.364   0.364   0.364   0.364   0.364   0.364   0.364   0.364   0.364   0.364   0.364   0.364   0.364   0.364   0.364   0.364   0.364   0.364   0.364   0.364   0.364   0.364   0.364   0.364
     2.30    0.364   0.364   0.364   0.364   0.364   0.364   0.364   0.364   0.364   0.364   0.364   0.364   0.364   0.364   0.364   0.364   0.364   0.364   0.364   0.364   0.364   0.364   0.364   0.364   0.364   0.364   0.364   0.364   0.364   0.364   0.364
     2.20    0.364   0.364   0.364   0.364   0.364   0.364   0.364   0.364   0.364   0.364   0.364   0.364   0.364   0.364   0.364   0.364   0.364   0.364   0.364   0.364   0.364   0.364   0.364   0.364   0.364   0.364   0.364   0.364   0.364   0.364   0.364
     2.10    0.364   0.364   0.364   0.364   0.364   0.364   0.364   0.364   0.364   0.364   0.364   0.364   0.364   0.364   0.364   0.364   0.364   0.364   0.364   0.364   0.364   0.364   0.364   0.364   0.364   0.364   0.364   0.364   0.364   0.364   0.364
     2.00    0.364   0.364   0.364   0.364   0.364   0.364   0.364   0.364   0.364   0.364   0.364   0.364   0.364   0.364   0.364   0.364   0.364   0.364   0.364   0.364   0.364   0.364   0.364   0.364   0.364   0.364   0.364   0.364   0.364   0.364   0.364
     1.90    0.364   0.364   0.364   0.364   0.364   0.364   0.364   0.364   0.364   0.364   0.364   0.364   0.364   0.364   0.364   0.364   0.364   0.364   0.364   0.364   0.364   0.364   0.364   0.364   0.364   0.364   0.364   0.364   0.364   0.364   0.364
     1.80    0.364   0.364   0.364   0.364   0.364   0.364   0.364   0.364   0.364   0.364   0.364   0.364   0.364   0.364   0.364   0.364   0.364   0.364   0.364   0.364   0.364   0.364   0.364   0.364   0.364   0.364   0.364   0.364   0.364   0.364   0.364
     1.70    0.364   0.364   0.364   0.364   0.364   0.364   0.364   0.364   0.364   0.364   0.364   0.364   0.364   0.364   0.364   0.364   0.364   0.364   0.364   0.364   0.364   0.364   0.364   0.364   0.364   0.364   0.364   0.364   0.364   0.364   0.364
     1.60    0.364   0.364   0.364   0.364   0.364   0.364   0.364   0.364   0.364   0.364   0.364   0.364   0.364   0.364   0.364   0.364   0.364   0.364   0.364   0.364   0.364   0.364   0.364   0.364   0.364   0.364   0.364   0.364   0.364   0.364   0.364
     1.50    0.364   0.364   0.364   0.364   0.364   0.364   0.364   0.364   0.364   0.364   0.364   0.364   0.364   0.364   0.364   0.364   0.364   0.364   0.364   0.364   0.364   0.364   0.364   0.364   0.364   0.364   0.364   0.364   0.364   0.364   0.364
     1.40    0.364   0.364   0.364   0.364   0.364   0.364   0.364   0.364   0.364   0.364   0.364   0.364   0.364   0.364   0.364   0.364   0.364   0.364   0.364   0.364   0.364   0.364   0.364   0.364   0.364   0.364   0.364   0.364   0.364   0.364   0.364
     1.30    0.364   0.364   0.364   0.364   0.364   0.364   0.364   0.364   0.364   0.364   0.364   0.364   0.364   0.364   0.364   0.364   0.364   0.364   0.364   0.364   0.364   0.364   0.364   0.364   0.364   0.364   0.364   0.364   0.364   0.364   0.364
     1.20    0.364   0.364   0.364   0.364   0.364   0.364   0.364   0.364   0.364   0.364   0.364   0.364   0.364   0.364   0.364   0.364   0.364   0.364   0.364   0.364   0.364   0.364   0.364   0.364   0.364   0.364   0.364   0.364   0.364   0.364   0.364
     1.10    0.364   0.364   0.364   0.364   0.364   0.364   0.364   0.364   0.364   0.364   0.364   0.364   0.364   0.364   0.364   0.364   0.364   0.364   0.364   0.364   0.364   0.364   0.364   0.364   0.364   0.364   0.364   0.364   0.364   0.364   0.364
     1.00    0.364   0.364   0.364   0.364   0.364   0.364   0.364   0.364   0.364   0.364   0.364   0.364   0.364   0.364   0.364   0.364   0.364   0.364   0.364   0.364   0.364   0.364   0.364   0.364   0.364   0.364   0.364   0.364   0.364   0.364   0.364
     0.90    0.364   0.364   0.364   0.364   0.364   0.364   0.364   0.364   0.364   0.364   0.364   0.364   0.364   0.364   0.364   0.364   0.364   0.364   0.364   0.364   0.364   0.364   0.364   0.364   0.364   0.364   0.364   0.364   0.364   0.364   0.364
     0.80    0.364   0.364   0.364   0.364   0.364   0.364   0.364   0.364   0.364   0.364   0.364   0.364   0.364   0.364   0.364   0.364   0.364   0.364   0.364   0.364   0.364   0.364   0.364   0.364   0.364   0.364   0.364   0.364   0.364   0.364   0.364
     0.70    0.364   0.364   0.364   0.364   0.364   0.364   0.364   0.364   0.364   0.364   0.364   0.364   0.364   0.364   0.364   0.364   0.364   0.364   0.364   0.364   0.364   0.364   0.364   0.364   0.364   0.364   0.364   0.364   0.364   0.364   0.364
     0.60    0.364   0.364   0.364   0.364   0.364   0.364   0.364   0.364   0.364   0.364   0.364   0.364   0.364   0.364   0.364   0.364   0.364   0.364   0.364   0.364   0.364   0.364   0.364   0.364   0.364   0.364   0.364   0.364   0.364   0.364   0.364
     0.50    0.364   0.364   0.364   0.364   0.364   0.364   0.364   0.364   0.364   0.364   0.364   0.364   0.364   0.364   0.364   0.364   0.364   0.364   0.364   0.364   0.364   0.364   0.364   0.364   0.364   0.364   0.364   0.364   0.364   0.364   0.364
     0.40    0.364   0.364   0.364   0.364   0.364   0.364   0.364   0.364   0.364   0.364   0.364   0.364   0.364   0.364   0.364   0.364   0.364   0.364   0.364   0.364   0.364   0.364   0.364   0.364   0.364   0.364   0.364   0.364   0.364   0.364   0.364
     0.30    0.364   0.364   0.364   0.364   0.364   0.364   0.364   0.364   0.364   0.364   0.364   0.364   0.364   0.364   0.364   0.364   0.364   0.364   0.364   0.364   0.364   0.364   0.364   0.364   0.364   0.364   0.364   0.364   0.364   0.364   0.364
     0.20    0.364   0.364   0.364   0.364   0.364   0.364   0.364   0.364   0.364   0.364   0.364   0.364   0.364   0.364   0.364   0.364   0.364   0.364   0.364   0.364   0.364   0.364   0.364   0.364   0.364   0.364   0.364   0.364   0.364   0.364   0.364
     0.10    0.364   0.364   0.364   0.364   0.364   0.364   0.364   0.364   0.364   0.364   0.364   0.364   0.364   0.364   0.364   0.364   0.364   0.364   0.364   0.364   0.364   0.364   0.364   0.364   0.364   0.364   0.364   0.364   0.364   0.364   0.364
     0.00    0.364   0.364   0.364   0.364   0.364   0.364   0.364   0.364   0.364   0.364   0.364   0.364   0.364   0.364   0.364   0.364   0.364   0.364   0.364   0.364   0.364   0.364   0.364   0.364   0.364   0.364   0.364   0.364   0.364   0.364   0.364

   Mean standard deviation across all grid points:
      u component:    0.383 m/s
      v component:    0.438 m/s
      w component:    0.364 m/s


U-component (X) statistics from the interpolated hub point:

   Mean =   1.2000 m/s
   TI   =  47.9852 %


Processing complete.  0.37446 CPU seconds used.
